version 3
run Indoor-0-20260426-22:31:17-10664
attr configname Indoor
attr datetime 20260426-22:31:17
attr datetimef 20260426-223117
attr experiment Indoor
attr inifile omnetpp.ini
attr iterationvars ""
attr iterationvarsd ""
attr iterationvarsf ""
attr measurement ""
attr network HospitalNet
attr processid 10664
attr repetition 0
attr replication #0
attr resultdir results
attr runnumber 0
attr seedset 0
config image-path ../../inet4.5/images
config description "Wireless nodes send pings inside a house"
config *.numMonitors 1
config *.numHosts 2
config *.visualizer.canvasVisualizer.physicalEnvironmentVisualizer.displayObjects true
config *.visualizer.*Visualizer.sceneVisualizer.axisLength 50m
config *.visualizer.osgVisualizer.sceneVisualizer.displayScene true
config *.visualizer.osgVisualizer.sceneVisualizer.sceneImage "\"background/checkered.png\""
config *.visualizer.osgVisualizer.sceneVisualizer.sceneImageSize 8m
config *.visualizer.canvasVisualizer.sceneVisualizer.viewTranslation "\"5000 5000\""
config *.visualizer.*Visualizer.mediumVisualizer.signalPropagationAnimationSpeed 0.000001
config *.visualizer.*Visualizer.mediumVisualizer.signalTransmissionAnimationSpeed 0.0005
config *.physicalEnvironment.config "xmldoc(\"indoor.xml\")"
config *.host[*].app[0].startTime 0s
config *.host[*].wlan[*].radio.transmitter.power 0.004mW
config *.host[*].wlan[*].radio.receiver.sensitivity -90dBm
config *.monitor[*].mobility.initFromDisplayString false
config *.monitor[*].mobility.constraintAreaMinX 0m
config *.monitor[*].mobility.constraintAreaMinY 0m
config *.monitor[*].mobility.constraintAreaMinZ 0m
config *.monitor[*].mobility.constraintAreaMaxX 40m
config *.monitor[*].mobility.constraintAreaMaxY 20m
config *.monitor[*].mobility.constraintAreaMaxZ 1m
config *.monitor[0].mobility.typename StationaryMobility
config *.monitor[0].mobility.initialX 30m
config *.monitor[0].mobility.initialY 19m
config *.monitor[*].mobility.initialZ 0m
config *.monitor[0].numApps 1
config *.monitor[0].app[0].typename UdpBasicApp
config *.monitor[0].app[0].destAddresses "\"10.0.0.2 10.0.0.3\""
config *.monitor[0].app[0].destPort 1000
config *.monitor[0].app[0].sendInterval 10s
config *.monitor[0].app[0].startTime 15s
config *.monitor[0].app[0].messageLength 40B
config *.host[*].numApps 1
config *.host[*].app[0].typename UdpSink
config *.host[*].app[0].localPort 1000
config *.host[1].mobility.typename TurtleMobility
config *.host[1].mobility.updateInterval 100ms
config *.host[1].mobility.turtleScript "xmldoc(\"turtle.xml\")"
config *.host[0].mobility.typename TurtleMobility
config *.host[0].mobility.updateInterval 100ms
config *.host[0].mobility.turtleScript "xmldoc(\"turtle2.xml\")"
config network HospitalNet
config *.configurator.addStaticArpEntries true
config *.configurator.optimizeRoutes false
config *.configurator.assignAddresses true
config **.vector-recording true
config **.scalar-recording true
config **.bin-recording true
config **.app[*].rcvdPkFromHL:vector.vector-recording true
config **.app[*].sentPk:vector.vector-recording true
config num-rngs 3
config *.host[*].mobility.rng-0 1
config *.host[*].wlan[*].mac.rng-0 2
config *.visualizer.*.mediumVisualizer.displaySignals false
config *.visualizer.*.mediumVisualizer.displaySignalDepartures false
config *.visualizer.*.mediumVisualizer.displaySignalArrivals false
config *.visualizer.canvasVisualizer.dataLinkVisualizer.displayLinks true
config *.visualizer.canvasVisualizer.dataLinkVisualizer.packetNameFilter "\"UdpBasicAppMsg\""
config *.visualizer.canvasVisualizer.dataLinkVisualizer.nodeFilter "\"host* or monitor*\""
config *.physicalEnvironment.spaceMinX 0m
config *.physicalEnvironment.spaceMinY 0m
config *.physicalEnvironment.spaceMinZ -1000m
config *.physicalEnvironment.spaceMaxX 1000m
config *.physicalEnvironment.spaceMaxY 1000m
config *.physicalEnvironment.spaceMaxZ 1000m
config *.radioMedium.obstacleLoss.typename DielectricObstacleLoss
config *.radioMedium.typename RadioMedium
config *.radioMedium.backgroundNoise.power -110dBm
config **.wlan[0].radio.displayInterferenceRange false
config **.wlan[0].radio.displayCommunicationRange true
config **.wlan[0].typename Ieee802154NarrowbandInterface
config **.wlan[0].mac.typename Ieee802154Mac
config **.wlan[0].radio.typename Ieee802154NarrowbandScalarRadio

par HospitalNet.visualizer.sceneVisualizer typename "\"inet.visualizer.canvas.scene.SceneCanvasVisualizer\""
par HospitalNet.visualizer.sceneVisualizer visualizationTargetModule "\"^.^\""
par HospitalNet.visualizer.sceneVisualizer visualizationSubjectModule "\"^.^\""
par HospitalNet.visualizer.sceneVisualizer tags "\"\""
par HospitalNet.visualizer.sceneVisualizer physicalEnvironmentModule "\"physicalEnvironment\""
par HospitalNet.visualizer.sceneVisualizer networkNodeVisualizerModule "\"^.networkNodeVisualizer\""
par HospitalNet.visualizer.sceneVisualizer axisLength "nan m"
attr mutable ""
attr unit m
par HospitalNet.visualizer.sceneVisualizer animationSpeed 0
par HospitalNet.visualizer.sceneVisualizer sceneMinX "nan m"
attr unit m
par HospitalNet.visualizer.sceneVisualizer sceneMinY "nan m"
attr unit m
par HospitalNet.visualizer.sceneVisualizer sceneMinZ "nan m"
attr unit m
par HospitalNet.visualizer.sceneVisualizer sceneMaxX "nan m"
attr unit m
par HospitalNet.visualizer.sceneVisualizer sceneMaxY "nan m"
attr unit m
par HospitalNet.visualizer.sceneVisualizer sceneMaxZ "nan m"
attr unit m
par HospitalNet.visualizer.sceneVisualizer zIndex 0
par HospitalNet.visualizer.sceneVisualizer viewAngle "\"x right y down z out\""
attr mutable ""
par HospitalNet.visualizer.sceneVisualizer viewScale "\"1 1\""
attr mutable ""
par HospitalNet.visualizer.sceneVisualizer viewTranslation "\"0 0\""
attr mutable ""
par HospitalNet.visualizer.sceneVisualizer descriptionFigure "\"\""
par HospitalNet.visualizer.physicalEnvironmentVisualizer typename "\"inet.visualizer.canvas.environment.PhysicalEnvironmentCanvasVisualizer\""
par HospitalNet.visualizer.physicalEnvironmentVisualizer visualizationTargetModule "\"^.^\""
par HospitalNet.visualizer.physicalEnvironmentVisualizer visualizationSubjectModule "\"^.^\""
par HospitalNet.visualizer.physicalEnvironmentVisualizer tags "\"\""
par HospitalNet.visualizer.physicalEnvironmentVisualizer physicalEnvironmentModule "\"physicalEnvironment\""
par HospitalNet.visualizer.physicalEnvironmentVisualizer displayObjects true
par HospitalNet.visualizer.physicalEnvironmentVisualizer zIndex 0
par HospitalNet.visualizer.networkNodeVisualizer typename "\"inet.visualizer.canvas.scene.NetworkNodeCanvasVisualizer\""
par HospitalNet.visualizer.networkNodeVisualizer visualizationTargetModule "\"^.^\""
par HospitalNet.visualizer.networkNodeVisualizer visualizationSubjectModule "\"^.^\""
par HospitalNet.visualizer.networkNodeVisualizer tags "\"\""
par HospitalNet.visualizer.networkNodeVisualizer nodeFilter "\"*\""
attr mutable ""
par HospitalNet.visualizer.networkNodeVisualizer annotationSpacing 4
par HospitalNet.visualizer.networkNodeVisualizer placementPenalty 10
par HospitalNet.visualizer.networkNodeVisualizer zIndex 0
par HospitalNet.visualizer.networkConnectionVisualizer typename "\"inet.visualizer.canvas.scene.NetworkConnectionCanvasVisualizer\""
par HospitalNet.visualizer.networkConnectionVisualizer visualizationTargetModule "\"^.^\""
par HospitalNet.visualizer.networkConnectionVisualizer visualizationSubjectModule "\"^.^\""
par HospitalNet.visualizer.networkConnectionVisualizer tags "\"\""
par HospitalNet.visualizer.networkConnectionVisualizer displayNetworkConnections true
par HospitalNet.visualizer.networkConnectionVisualizer nodeFilter "\"\""
attr mutable ""
par HospitalNet.visualizer.networkConnectionVisualizer lineColor "\"black\""
par HospitalNet.visualizer.networkConnectionVisualizer lineStyle "\"solid\""
par HospitalNet.visualizer.networkConnectionVisualizer lineWidth 1
par HospitalNet.visualizer.networkConnectionVisualizer zIndex 0
par HospitalNet.visualizer.mobilityVisualizer typename "\"inet.visualizer.canvas.mobility.MobilityCanvasVisualizer\""
par HospitalNet.visualizer.mobilityVisualizer visualizationTargetModule "\"^.^\""
par HospitalNet.visualizer.mobilityVisualizer visualizationSubjectModule "\"^.^\""
par HospitalNet.visualizer.mobilityVisualizer tags "\"\""
par HospitalNet.visualizer.mobilityVisualizer networkNodeVisualizerModule "\"^.networkNodeVisualizer\""
par HospitalNet.visualizer.mobilityVisualizer displayMobility true
par HospitalNet.visualizer.mobilityVisualizer animationSpeed 0
par HospitalNet.visualizer.mobilityVisualizer moduleFilter "\"**.mobility\""
attr mutable ""
par HospitalNet.visualizer.mobilityVisualizer displayPositions false
par HospitalNet.visualizer.mobilityVisualizer positionCircleRadius 4
par HospitalNet.visualizer.mobilityVisualizer positionCircleLineWidth 1
par HospitalNet.visualizer.mobilityVisualizer positionCircleLineColor "\"dark\""
par HospitalNet.visualizer.mobilityVisualizer positionCircleFillColor "\"dark\""
par HospitalNet.visualizer.mobilityVisualizer displayOrientations false
par HospitalNet.visualizer.mobilityVisualizer orientationPieRadius 32
par HospitalNet.visualizer.mobilityVisualizer orientationPieSize 0.2
par HospitalNet.visualizer.mobilityVisualizer orientationPieOpacity 0.25
par HospitalNet.visualizer.mobilityVisualizer orientationLineColor "\"black\""
par HospitalNet.visualizer.mobilityVisualizer orientationLineStyle "\"solid\""
par HospitalNet.visualizer.mobilityVisualizer orientationLineWidth 1
par HospitalNet.visualizer.mobilityVisualizer orientationFillColor "\"blue\""
par HospitalNet.visualizer.mobilityVisualizer displayVelocities false
par HospitalNet.visualizer.mobilityVisualizer velocityArrowScale 1
par HospitalNet.visualizer.mobilityVisualizer velocityLineColor "\"black\""
par HospitalNet.visualizer.mobilityVisualizer velocityLineStyle "\"solid\""
par HospitalNet.visualizer.mobilityVisualizer velocityLineWidth 1
par HospitalNet.visualizer.mobilityVisualizer displayMovementTrails false
par HospitalNet.visualizer.mobilityVisualizer movementTrailLineColor "\"dark\""
par HospitalNet.visualizer.mobilityVisualizer movementTrailLineStyle "\"solid\""
par HospitalNet.visualizer.mobilityVisualizer movementTrailLineWidth 1
par HospitalNet.visualizer.mobilityVisualizer trailLength 100
par HospitalNet.visualizer.mobilityVisualizer zIndex 0
par HospitalNet.visualizer.statisticVisualizer typename "\"inet.visualizer.canvas.common.StatisticCanvasVisualizer\""
par HospitalNet.visualizer.statisticVisualizer visualizationTargetModule "\"^.^\""
par HospitalNet.visualizer.statisticVisualizer visualizationSubjectModule "\"^.^\""
par HospitalNet.visualizer.statisticVisualizer tags "\"\""
par HospitalNet.visualizer.statisticVisualizer networkNodeVisualizerModule "\"^.networkNodeVisualizer\""
par HospitalNet.visualizer.statisticVisualizer displayStatistics true
par HospitalNet.visualizer.statisticVisualizer signalName "\"\""
par HospitalNet.visualizer.statisticVisualizer statisticName "\"\""
par HospitalNet.visualizer.statisticVisualizer statisticUnit "\"\""
par HospitalNet.visualizer.statisticVisualizer statisticExpression "\"\""
par HospitalNet.visualizer.statisticVisualizer sourceFilter "\"**\""
attr mutable ""
par HospitalNet.visualizer.statisticVisualizer format "\"%n: %v %u\""
attr mutable ""
par HospitalNet.visualizer.statisticVisualizer unit "\"\""
par HospitalNet.visualizer.statisticVisualizer font "\"<default>\""
par HospitalNet.visualizer.statisticVisualizer textColor "\"black\""
par HospitalNet.visualizer.statisticVisualizer backgroundColor "\"white\""
par HospitalNet.visualizer.statisticVisualizer opacity 1
par HospitalNet.visualizer.statisticVisualizer placementHint "\"top\""
par HospitalNet.visualizer.statisticVisualizer placementPriority 0
par HospitalNet.visualizer.statisticVisualizer zIndex 10
par HospitalNet.visualizer.statisticVisualizer propertyName "\"\""
par HospitalNet.visualizer.statisticVisualizer propertyIndex "\"\""
par HospitalNet.visualizer.infoVisualizer typename "\"inet.visualizer.canvas.common.InfoCanvasVisualizer\""
par HospitalNet.visualizer.infoVisualizer visualizationTargetModule "\"^.^\""
par HospitalNet.visualizer.infoVisualizer visualizationSubjectModule "\"^.^\""
par HospitalNet.visualizer.infoVisualizer tags "\"\""
par HospitalNet.visualizer.infoVisualizer networkNodeVisualizerModule "\"^.networkNodeVisualizer\""
par HospitalNet.visualizer.infoVisualizer displayInfos true
par HospitalNet.visualizer.infoVisualizer modules "\"\""
attr mutable ""
par HospitalNet.visualizer.infoVisualizer format "\"%t\""
attr mutable ""
par HospitalNet.visualizer.infoVisualizer font "\"<default>\""
par HospitalNet.visualizer.infoVisualizer textColor "\"black\""
par HospitalNet.visualizer.infoVisualizer backgroundColor "\"white\""
par HospitalNet.visualizer.infoVisualizer opacity 1
par HospitalNet.visualizer.infoVisualizer placementHint "\"top\""
par HospitalNet.visualizer.infoVisualizer placementPriority 0
par HospitalNet.visualizer.infoVisualizer zIndex 10
par HospitalNet.visualizer.energyStorageVisualizer typename "\"inet.visualizer.canvas.power.EnergyStorageCanvasVisualizer\""
par HospitalNet.visualizer.energyStorageVisualizer visualizationTargetModule "\"^.^\""
par HospitalNet.visualizer.energyStorageVisualizer visualizationSubjectModule "\"^.^\""
par HospitalNet.visualizer.energyStorageVisualizer tags "\"\""
par HospitalNet.visualizer.energyStorageVisualizer networkNodeVisualizerModule "\"^.networkNodeVisualizer\""
par HospitalNet.visualizer.energyStorageVisualizer displayEnergyStorages false
par HospitalNet.visualizer.energyStorageVisualizer energyStorageFilter "\"**\""
par HospitalNet.visualizer.energyStorageVisualizer color "\"green\""
par HospitalNet.visualizer.energyStorageVisualizer width 8
par HospitalNet.visualizer.energyStorageVisualizer height 24
par HospitalNet.visualizer.energyStorageVisualizer spacing 2
par HospitalNet.visualizer.energyStorageVisualizer placementHint "\"right\""
par HospitalNet.visualizer.energyStorageVisualizer placementPriority 0
par HospitalNet.visualizer.energyStorageVisualizer zIndex 10
par HospitalNet.visualizer.mediumVisualizer typename "\"inet.visualizer.canvas.physicallayer.MediumCanvasVisualizer\""
par HospitalNet.visualizer.mediumVisualizer visualizationTargetModule "\"^.^\""
par HospitalNet.visualizer.mediumVisualizer visualizationSubjectModule "\"^.^\""
par HospitalNet.visualizer.mediumVisualizer tags "\"\""
par HospitalNet.visualizer.mediumVisualizer mediumModule "\"radioMedium\""
par HospitalNet.visualizer.mediumVisualizer networkNodeVisualizerModule "\"^.networkNodeVisualizer\""
par HospitalNet.visualizer.mediumVisualizer nodeFilter "\"*\""
attr mutable ""
par HospitalNet.visualizer.mediumVisualizer interfaceFilter "\"*\""
attr mutable ""
par HospitalNet.visualizer.mediumVisualizer packetFilter "(omnetpp::cValueHolder)holder: \"*\""
attr mutable ""
par HospitalNet.visualizer.mediumVisualizer displaySignals false
par HospitalNet.visualizer.mediumVisualizer signalColor "\"dark\""
par HospitalNet.visualizer.mediumVisualizer signalPropagationAnimationSpeed "nan "
attr mutable ""
par HospitalNet.visualizer.mediumVisualizer signalPropagationAnimationTime 1s
attr unit s
par HospitalNet.visualizer.mediumVisualizer signalPropagationAdditionalTime 0s
attr unit s
par HospitalNet.visualizer.mediumVisualizer signalTransmissionAnimationSpeed "nan "
attr mutable ""
par HospitalNet.visualizer.mediumVisualizer signalTransmissionAnimationTime 1s
attr unit s
par HospitalNet.visualizer.mediumVisualizer signalAnimationSpeedChangeTimeMode "\"realTime\""
attr enum realTime,animationTime,simulationTime
par HospitalNet.visualizer.mediumVisualizer signalAnimationSpeedChangeTime 1s
attr unit s
par HospitalNet.visualizer.mediumVisualizer displaySignalDepartures false
par HospitalNet.visualizer.mediumVisualizer signalDepartureImage "\"misc/signal_departure.png\""
par HospitalNet.visualizer.mediumVisualizer signalDeparturePlacementHint "\"topCenter\""
par HospitalNet.visualizer.mediumVisualizer signalDeparturePlacementPriority 1
par HospitalNet.visualizer.mediumVisualizer displaySignalArrivals false
par HospitalNet.visualizer.mediumVisualizer signalArrivalImage "\"misc/signal_arrival.png\""
par HospitalNet.visualizer.mediumVisualizer signalArrivalPlacementHint "\"topCenter\""
par HospitalNet.visualizer.mediumVisualizer signalArrivalPlacementPriority -1
par HospitalNet.visualizer.mediumVisualizer displayCommunicationRanges false
par HospitalNet.visualizer.mediumVisualizer communicationRangeLineColor "\"blue\""
par HospitalNet.visualizer.mediumVisualizer communicationRangeLineStyle "\"solid\""
par HospitalNet.visualizer.mediumVisualizer communicationRangeLineWidth 1
par HospitalNet.visualizer.mediumVisualizer displayInterferenceRanges false
par HospitalNet.visualizer.mediumVisualizer interferenceRangeLineColor "\"gray\""
par HospitalNet.visualizer.mediumVisualizer interferenceRangeLineStyle "\"solid\""
par HospitalNet.visualizer.mediumVisualizer interferenceRangeLineWidth 1
par HospitalNet.visualizer.mediumVisualizer autoPowerAxis true
par HospitalNet.visualizer.mediumVisualizer signalMinPower "inf dBmW"
attr unit dBmW
par HospitalNet.visualizer.mediumVisualizer signalMaxPower 0dBmW
attr unit dBmW
par HospitalNet.visualizer.mediumVisualizer signalMinPowerDensity "inf dBmWpMHz"
attr unit dBmWpMHz
par HospitalNet.visualizer.mediumVisualizer signalMaxPowerDensity "-inf dBmWpMHz"
attr unit dBmWpMHz
par HospitalNet.visualizer.mediumVisualizer autoTimeAxis true
par HospitalNet.visualizer.mediumVisualizer signalMinTime 0s
attr unit s
par HospitalNet.visualizer.mediumVisualizer signalMaxTime 0s
attr unit s
par HospitalNet.visualizer.mediumVisualizer autoFrequencyAxis true
par HospitalNet.visualizer.mediumVisualizer signalMinFrequency "inf Hz"
attr unit Hz
par HospitalNet.visualizer.mediumVisualizer signalMaxFrequency "-inf Hz"
attr unit Hz
par HospitalNet.visualizer.mediumVisualizer displayMainPowerDensityMap false
par HospitalNet.visualizer.mediumVisualizer mainPowerDensityMapPixmapDensity 1
par HospitalNet.visualizer.mediumVisualizer mainPowerDensityMapMinX 0
par HospitalNet.visualizer.mediumVisualizer mainPowerDensityMapMaxX "nan "
par HospitalNet.visualizer.mediumVisualizer mainPowerDensityMapMinY 0
par HospitalNet.visualizer.mediumVisualizer mainPowerDensityMapMaxY "nan "
par HospitalNet.visualizer.mediumVisualizer mainPowerDensityMapZ 0
par HospitalNet.visualizer.mediumVisualizer mainPowerDensityMapFigureXTickCount 3
par HospitalNet.visualizer.mediumVisualizer mainPowerDensityMapFigureYTickCount 3
par HospitalNet.visualizer.mediumVisualizer displayPowerDensityMaps false
par HospitalNet.visualizer.mediumVisualizer powerDensityMapMode "\"auto\""
attr enum total,signal,auto
par HospitalNet.visualizer.mediumVisualizer powerDensityMapPixelMode "\"mean\""
attr enum sample,partition,mean
par HospitalNet.visualizer.mediumVisualizer powerDensityMapApproximationSize 10
par HospitalNet.visualizer.mediumVisualizer powerDensityMapCenterFrequency "nan Hz"
attr mutable ""
attr unit Hz
par HospitalNet.visualizer.mediumVisualizer powerDensityMapBandwidth 0Hz
attr mutable ""
attr unit Hz
par HospitalNet.visualizer.mediumVisualizer powerDensityMapFigureWidth 200
par HospitalNet.visualizer.mediumVisualizer powerDensityMapFigureHeight 120
par HospitalNet.visualizer.mediumVisualizer powerDensityMapPixmapWidth 200
par HospitalNet.visualizer.mediumVisualizer powerDensityMapPixmapHeight 120
par HospitalNet.visualizer.mediumVisualizer powerDensityMapZ 0
par HospitalNet.visualizer.mediumVisualizer powerDensityMapFigureXTickCount 3
par HospitalNet.visualizer.mediumVisualizer powerDensityMapFigureYTickCount 3
par HospitalNet.visualizer.mediumVisualizer displaySpectrums false
par HospitalNet.visualizer.mediumVisualizer spectrumMode "\"auto\""
attr enum total,signal,auto
par HospitalNet.visualizer.mediumVisualizer spectrumFigureWidth 200
par HospitalNet.visualizer.mediumVisualizer spectrumFigureHeight 120
par HospitalNet.visualizer.mediumVisualizer spectrumFigureXTickCount 3
par HospitalNet.visualizer.mediumVisualizer spectrumFigureYTickCount 5
par HospitalNet.visualizer.mediumVisualizer spectrumFigureInterpolationSize 5
par HospitalNet.visualizer.mediumVisualizer spectrumPlacementHint "\"bottomCenter\""
par HospitalNet.visualizer.mediumVisualizer spectrumPlacementPriority -1
par HospitalNet.visualizer.mediumVisualizer displaySpectrograms false
par HospitalNet.visualizer.mediumVisualizer spectrogramMode "\"auto\""
attr enum total,signal,auto
par HospitalNet.visualizer.mediumVisualizer spectrogramPixelMode "\"mean\""
attr enum sample,partition,mean
par HospitalNet.visualizer.mediumVisualizer spectrogramFigureWidth 200
par HospitalNet.visualizer.mediumVisualizer spectrogramFigureHeight 120
par HospitalNet.visualizer.mediumVisualizer spectrogramPixmapWidth 200
par HospitalNet.visualizer.mediumVisualizer spectrogramPixmapHeight 120
par HospitalNet.visualizer.mediumVisualizer spectrogramFigureXTickCount 3
par HospitalNet.visualizer.mediumVisualizer spectrogramFigureYTickCount 5
par HospitalNet.visualizer.mediumVisualizer spectrogramPlacementHint "\"bottomCenter\""
par HospitalNet.visualizer.mediumVisualizer spectrogramPlacementPriority -1
par HospitalNet.visualizer.mediumVisualizer zIndex 0
par HospitalNet.visualizer.mediumVisualizer signalShape "\"ring\""
attr enum ring,sphere
par HospitalNet.visualizer.mediumVisualizer signalOpacity 0.5
par HospitalNet.visualizer.mediumVisualizer signalRingCount 20
par HospitalNet.visualizer.mediumVisualizer signalRingSize 50m
attr unit m
par HospitalNet.visualizer.mediumVisualizer signalFadingDistance 50m
attr unit m
par HospitalNet.visualizer.mediumVisualizer signalFadingFactor 1.2
par HospitalNet.visualizer.mediumVisualizer signalWaveCount 20
par HospitalNet.visualizer.mediumVisualizer signalWaveLength 50m
attr unit m
par HospitalNet.visualizer.mediumVisualizer signalWaveWidth 10m
attr unit m
par HospitalNet.visualizer.mediumVisualizer signalWaveFadingAnimationSpeedFactor 1
par HospitalNet.visualizer.mediumVisualizer displayCommunicationHeat false
par HospitalNet.visualizer.obstacleLossVisualizer typename "\"inet.visualizer.canvas.physicallayer.TracingObstacleLossCanvasVisualizer\""
par HospitalNet.visualizer.obstacleLossVisualizer visualizationTargetModule "\"^.^\""
par HospitalNet.visualizer.obstacleLossVisualizer visualizationSubjectModule "\"^.^\""
par HospitalNet.visualizer.obstacleLossVisualizer tags "\"\""
par HospitalNet.visualizer.obstacleLossVisualizer displayIntersections false
par HospitalNet.visualizer.obstacleLossVisualizer intersectionLineColor "\"red\""
par HospitalNet.visualizer.obstacleLossVisualizer intersectionLineStyle "\"solid\""
par HospitalNet.visualizer.obstacleLossVisualizer intersectionLineWidth 1
par HospitalNet.visualizer.obstacleLossVisualizer displayFaceNormalVectors false
par HospitalNet.visualizer.obstacleLossVisualizer faceNormalLineColor "\"grey\""
par HospitalNet.visualizer.obstacleLossVisualizer faceNormalLineStyle "\"solid\""
par HospitalNet.visualizer.obstacleLossVisualizer faceNormalLineWidth 1
par HospitalNet.visualizer.obstacleLossVisualizer fadeOutMode "\"realTime\""
attr enum realTime,animationTime,simulationTime
par HospitalNet.visualizer.obstacleLossVisualizer fadeOutTime 1s
attr unit s
par HospitalNet.visualizer.obstacleLossVisualizer fadeOutAnimationSpeed 0
par HospitalNet.visualizer.obstacleLossVisualizer zIndex 0
par HospitalNet.visualizer.packetDropVisualizer typename "\"inet.visualizer.canvas.common.PacketDropCanvasVisualizer\""
par HospitalNet.visualizer.packetDropVisualizer visualizationTargetModule "\"^.^\""
par HospitalNet.visualizer.packetDropVisualizer visualizationSubjectModule "\"^.^\""
par HospitalNet.visualizer.packetDropVisualizer tags "\"\""
par HospitalNet.visualizer.packetDropVisualizer displayPacketDrops false
par HospitalNet.visualizer.packetDropVisualizer nodeFilter "\"*\""
attr mutable ""
par HospitalNet.visualizer.packetDropVisualizer interfaceFilter "\"*\""
attr mutable ""
par HospitalNet.visualizer.packetDropVisualizer packetFilter "(omnetpp::cValueHolder)holder: \"*\""
attr mutable ""
par HospitalNet.visualizer.packetDropVisualizer detailsFilter "\"*\""
attr mutable ""
par HospitalNet.visualizer.packetDropVisualizer icon "\"msg/packet_s\""
par HospitalNet.visualizer.packetDropVisualizer iconTintAmount 1
par HospitalNet.visualizer.packetDropVisualizer iconTintColor "\"dark\""
par HospitalNet.visualizer.packetDropVisualizer labelFormat "\"%n\""
attr mutable ""
par HospitalNet.visualizer.packetDropVisualizer labelFont "\"<default>\""
par HospitalNet.visualizer.packetDropVisualizer labelColor "\"black\""
par HospitalNet.visualizer.packetDropVisualizer fadeOutMode "\"realTime\""
attr enum realTime,animationTime,simulationTime
par HospitalNet.visualizer.packetDropVisualizer fadeOutTime 1s
attr unit s
par HospitalNet.visualizer.packetDropVisualizer fadeOutAnimationSpeed 0
par HospitalNet.visualizer.packetDropVisualizer zIndex 10
par HospitalNet.visualizer.packetDropVisualizer dx 32
par HospitalNet.visualizer.packetDropVisualizer dy 64
par HospitalNet.visualizer.packetFlowVisualizer typename "\"inet.visualizer.canvas.flow.PacketFlowCanvasVisualizer\""
par HospitalNet.visualizer.packetFlowVisualizer visualizationTargetModule "\"^.^\""
par HospitalNet.visualizer.packetFlowVisualizer visualizationSubjectModule "\"^.^\""
par HospitalNet.visualizer.packetFlowVisualizer tags "\"\""
par HospitalNet.visualizer.packetFlowVisualizer displayRoutes false
par HospitalNet.visualizer.packetFlowVisualizer startPathSignal "\"packetFlowStarted\""
par HospitalNet.visualizer.packetFlowVisualizer extendPathSignal "\"packetReceivedFromLower\""
par HospitalNet.visualizer.packetFlowVisualizer endPathSignal "\"packetFlowEnded\""
par HospitalNet.visualizer.packetFlowVisualizer nodeFilter "\"*\""
attr mutable ""
par HospitalNet.visualizer.packetFlowVisualizer packetFilter "(omnetpp::cValueHolder)holder: \"*\""
attr mutable ""
par HospitalNet.visualizer.packetFlowVisualizer lineColor "\"dark\""
par HospitalNet.visualizer.packetFlowVisualizer lineStyle "\"dashed\""
par HospitalNet.visualizer.packetFlowVisualizer lineWidth 3
par HospitalNet.visualizer.packetFlowVisualizer lineSmooth false
par HospitalNet.visualizer.packetFlowVisualizer lineShift 16
par HospitalNet.visualizer.packetFlowVisualizer lineShiftMode "\"normal\""
par HospitalNet.visualizer.packetFlowVisualizer lineContactSpacing 3
par HospitalNet.visualizer.packetFlowVisualizer lineContactMode "\"rectangular\""
attr enum circular,rectangular
par HospitalNet.visualizer.packetFlowVisualizer labelFormat "\"%L %p pk (%l)\""
par HospitalNet.visualizer.packetFlowVisualizer labelFont "\"<default>, 8px\""
par HospitalNet.visualizer.packetFlowVisualizer labelColor "\"\""
par HospitalNet.visualizer.packetFlowVisualizer fadeOutMode "\"realTime\""
attr enum realTime,animationTime,simulationTime
par HospitalNet.visualizer.packetFlowVisualizer fadeOutTime 0s
attr unit s
par HospitalNet.visualizer.packetFlowVisualizer fadeOutAnimationSpeed 0
par HospitalNet.visualizer.packetFlowVisualizer zIndex 4
par HospitalNet.visualizer.queueVisualizer typename "\"inet.visualizer.canvas.common.QueueCanvasVisualizer\""
par HospitalNet.visualizer.queueVisualizer visualizationTargetModule "\"^.^\""
par HospitalNet.visualizer.queueVisualizer visualizationSubjectModule "\"^.^\""
par HospitalNet.visualizer.queueVisualizer tags "\"\""
par HospitalNet.visualizer.queueVisualizer networkNodeVisualizerModule "\"^.networkNodeVisualizer\""
par HospitalNet.visualizer.queueVisualizer displayQueues false
par HospitalNet.visualizer.queueVisualizer queueFilter "\"**\""
par HospitalNet.visualizer.queueVisualizer color "\"blue\""
par HospitalNet.visualizer.queueVisualizer width 8
par HospitalNet.visualizer.queueVisualizer height 24
par HospitalNet.visualizer.queueVisualizer spacing 2
par HospitalNet.visualizer.queueVisualizer placementHint "\"right\""
par HospitalNet.visualizer.queueVisualizer placementPriority 0
par HospitalNet.visualizer.queueVisualizer zIndex 10
par HospitalNet.visualizer.gateScheduleVisualizer typename "\"inet.visualizer.canvas.common.GateScheduleCanvasVisualizer\""
par HospitalNet.visualizer.gateScheduleVisualizer visualizationTargetModule "\"^.^\""
par HospitalNet.visualizer.gateScheduleVisualizer visualizationSubjectModule "\"^.^\""
par HospitalNet.visualizer.gateScheduleVisualizer tags "\"\""
par HospitalNet.visualizer.gateScheduleVisualizer networkNodeVisualizerModule "\"^.networkNodeVisualizer\""
par HospitalNet.visualizer.gateScheduleVisualizer displayGateSchedules false
par HospitalNet.visualizer.gateScheduleVisualizer labelFormat "\"%i %D\""
par HospitalNet.visualizer.gateScheduleVisualizer gateFilter "\"**\""
par HospitalNet.visualizer.gateScheduleVisualizer width 100
par HospitalNet.visualizer.gateScheduleVisualizer height 8
par HospitalNet.visualizer.gateScheduleVisualizer spacing 2
par HospitalNet.visualizer.gateScheduleVisualizer placementHint "\"right\""
par HospitalNet.visualizer.gateScheduleVisualizer placementPriority 0
par HospitalNet.visualizer.gateScheduleVisualizer displayDuration 0s
attr mutable ""
attr unit s
par HospitalNet.visualizer.gateScheduleVisualizer currentTimePosition 50
par HospitalNet.visualizer.gateScheduleVisualizer zIndex 10
par HospitalNet.visualizer.radioVisualizer typename "\"inet.visualizer.canvas.physicallayer.RadioCanvasVisualizer\""
par HospitalNet.visualizer.radioVisualizer visualizationTargetModule "\"^.^\""
par HospitalNet.visualizer.radioVisualizer visualizationSubjectModule "\"^.^\""
par HospitalNet.visualizer.radioVisualizer tags "\"\""
par HospitalNet.visualizer.radioVisualizer networkNodeVisualizerModule "\"^.networkNodeVisualizer\""
par HospitalNet.visualizer.radioVisualizer displayRadios false
par HospitalNet.visualizer.radioVisualizer displayRadioMode true
par HospitalNet.visualizer.radioVisualizer displayReceptionState true
par HospitalNet.visualizer.radioVisualizer displayTransmissionState true
par HospitalNet.visualizer.radioVisualizer displayAntennaLobes false
par HospitalNet.visualizer.radioVisualizer radioFilter "\"**\""
attr mutable ""
par HospitalNet.visualizer.radioVisualizer radioModeImages "\"block/process_vs block/timer_vs block/wrx_vs block/wtx_vs block/wrxtx_vs block/cogwheel_vs\""
par HospitalNet.visualizer.radioVisualizer receptionStateImages "\"- - misc/receiving misc/receiving\""
par HospitalNet.visualizer.radioVisualizer transmissionStateImages "\"- - misc/transmitting\""
par HospitalNet.visualizer.radioVisualizer width 16
par HospitalNet.visualizer.radioVisualizer height 16
par HospitalNet.visualizer.radioVisualizer placementHint "\"bottomRight\""
par HospitalNet.visualizer.radioVisualizer placementPriority 0
par HospitalNet.visualizer.radioVisualizer antennaLobeNormalize false
par HospitalNet.visualizer.radioVisualizer antennaLobeRelativeLabels false
par HospitalNet.visualizer.radioVisualizer antennaLobePlaneGlobal true
par HospitalNet.visualizer.radioVisualizer antennaLobePlane "\"view\""
attr enum view,xy,xz,yz
par HospitalNet.visualizer.radioVisualizer antennaLobeMode "\"logarithmic\""
attr enum logarithmic,linear
par HospitalNet.visualizer.radioVisualizer antennaLobeLogarithmicBase 10
par HospitalNet.visualizer.radioVisualizer antennaLobeLogarithmicScale 100
par HospitalNet.visualizer.radioVisualizer antennaLobeRadius 100
par HospitalNet.visualizer.radioVisualizer antennaLobeStep 10deg
attr unit deg
par HospitalNet.visualizer.radioVisualizer antennaLobeOpacity 0.25
par HospitalNet.visualizer.radioVisualizer antennaLobeLineSmooth true
par HospitalNet.visualizer.radioVisualizer antennaLobeLineColor "\"black\""
par HospitalNet.visualizer.radioVisualizer antennaLobeLineStyle "\"solid\""
par HospitalNet.visualizer.radioVisualizer antennaLobeLineWidth 1
par HospitalNet.visualizer.radioVisualizer antennaLobeFillColor "\"white\""
par HospitalNet.visualizer.radioVisualizer zIndex 10
par HospitalNet.visualizer.physicalLinkVisualizer typename "\"inet.visualizer.canvas.physicallayer.PhysicalLinkCanvasVisualizer\""
par HospitalNet.visualizer.physicalLinkVisualizer visualizationTargetModule "\"^.^\""
par HospitalNet.visualizer.physicalLinkVisualizer visualizationSubjectModule "\"^.^\""
par HospitalNet.visualizer.physicalLinkVisualizer tags "\"\""
par HospitalNet.visualizer.physicalLinkVisualizer displayLinks false
par HospitalNet.visualizer.physicalLinkVisualizer activityLevel "\"service\""
attr enum service,peer,protocol
par HospitalNet.visualizer.physicalLinkVisualizer nodeFilter "\"*\""
attr mutable ""
par HospitalNet.visualizer.physicalLinkVisualizer interfaceFilter "\"*\""
attr mutable ""
par HospitalNet.visualizer.physicalLinkVisualizer packetFilter "(omnetpp::cValueHolder)holder: \"*\""
attr mutable ""
par HospitalNet.visualizer.physicalLinkVisualizer lineColor "\"olive\""
par HospitalNet.visualizer.physicalLinkVisualizer lineStyle "\"dotted\""
par HospitalNet.visualizer.physicalLinkVisualizer lineWidth 3
par HospitalNet.visualizer.physicalLinkVisualizer lineShift 16
par HospitalNet.visualizer.physicalLinkVisualizer lineShiftMode "\"normal\""
par HospitalNet.visualizer.physicalLinkVisualizer lineContactSpacing 3
par HospitalNet.visualizer.physicalLinkVisualizer lineContactMode "\"rectangular\""
attr enum circular,rectangular
par HospitalNet.visualizer.physicalLinkVisualizer labelFormat "\"%n\""
par HospitalNet.visualizer.physicalLinkVisualizer labelFont "\"<default>, 8px\""
par HospitalNet.visualizer.physicalLinkVisualizer labelColor "\"olive\""
par HospitalNet.visualizer.physicalLinkVisualizer fadeOutMode "\"realTime\""
attr enum realTime,animationTime,simulationTime
par HospitalNet.visualizer.physicalLinkVisualizer fadeOutTime 1s
attr unit s
par HospitalNet.visualizer.physicalLinkVisualizer fadeOutAnimationSpeed 0
par HospitalNet.visualizer.physicalLinkVisualizer holdAnimationTime 0s
attr unit s
par HospitalNet.visualizer.physicalLinkVisualizer zIndex 1
par HospitalNet.visualizer.interfaceTableVisualizer typename "\"inet.visualizer.canvas.linklayer.InterfaceTableCanvasVisualizer\""
par HospitalNet.visualizer.interfaceTableVisualizer visualizationTargetModule "\"^.^\""
par HospitalNet.visualizer.interfaceTableVisualizer visualizationSubjectModule "\"^.^\""
par HospitalNet.visualizer.interfaceTableVisualizer tags "\"\""
par HospitalNet.visualizer.interfaceTableVisualizer networkNodeVisualizerModule "\"^.networkNodeVisualizer\""
par HospitalNet.visualizer.interfaceTableVisualizer displayInterfaceTables false
par HospitalNet.visualizer.interfaceTableVisualizer displayWiredInterfacesAtConnections true
par HospitalNet.visualizer.interfaceTableVisualizer displayBackground false
par HospitalNet.visualizer.interfaceTableVisualizer nodeFilter "\"*\""
attr mutable ""
par HospitalNet.visualizer.interfaceTableVisualizer interfaceFilter "\"not(lo*)\""
attr mutable ""
par HospitalNet.visualizer.interfaceTableVisualizer format "\"%N %\\\\%a%/%l\""
attr mutable ""
par HospitalNet.visualizer.interfaceTableVisualizer placementHint "\"top\""
par HospitalNet.visualizer.interfaceTableVisualizer placementPriority 0
par HospitalNet.visualizer.interfaceTableVisualizer font "\"<default>\""
par HospitalNet.visualizer.interfaceTableVisualizer textColor "\"#005030\""
par HospitalNet.visualizer.interfaceTableVisualizer backgroundColor "\"white\""
par HospitalNet.visualizer.interfaceTableVisualizer opacity 1
par HospitalNet.visualizer.interfaceTableVisualizer zIndex 10
par HospitalNet.visualizer.dataLinkVisualizer typename "\"inet.visualizer.canvas.linklayer.DataLinkCanvasVisualizer\""
par HospitalNet.visualizer.dataLinkVisualizer visualizationTargetModule "\"^.^\""
par HospitalNet.visualizer.dataLinkVisualizer visualizationSubjectModule "\"^.^\""
par HospitalNet.visualizer.dataLinkVisualizer tags "\"\""
par HospitalNet.visualizer.dataLinkVisualizer displayLinks false
par HospitalNet.visualizer.dataLinkVisualizer activityLevel "\"service\""
attr enum service,peer,protocol
par HospitalNet.visualizer.dataLinkVisualizer nodeFilter "\"*\""
attr mutable ""
par HospitalNet.visualizer.dataLinkVisualizer interfaceFilter "\"*\""
attr mutable ""
par HospitalNet.visualizer.dataLinkVisualizer packetFilter "(omnetpp::cValueHolder)holder: \"*\""
attr mutable ""
par HospitalNet.visualizer.dataLinkVisualizer lineColor "\"darkcyan\""
par HospitalNet.visualizer.dataLinkVisualizer lineStyle "\"solid\""
par HospitalNet.visualizer.dataLinkVisualizer lineWidth 3
par HospitalNet.visualizer.dataLinkVisualizer lineShift 16
par HospitalNet.visualizer.dataLinkVisualizer lineShiftMode "\"normal\""
par HospitalNet.visualizer.dataLinkVisualizer lineContactSpacing 3
par HospitalNet.visualizer.dataLinkVisualizer lineContactMode "\"rectangular\""
attr enum circular,rectangular
par HospitalNet.visualizer.dataLinkVisualizer labelFormat "\"%n\""
par HospitalNet.visualizer.dataLinkVisualizer labelFont "\"<default>, 8px\""
par HospitalNet.visualizer.dataLinkVisualizer labelColor "\"darkcyan\""
par HospitalNet.visualizer.dataLinkVisualizer fadeOutMode "\"realTime\""
attr enum realTime,animationTime,simulationTime
par HospitalNet.visualizer.dataLinkVisualizer fadeOutTime 1s
attr unit s
par HospitalNet.visualizer.dataLinkVisualizer fadeOutAnimationSpeed 0
par HospitalNet.visualizer.dataLinkVisualizer holdAnimationTime 0s
attr unit s
par HospitalNet.visualizer.dataLinkVisualizer zIndex 2
par HospitalNet.visualizer.linkBreakVisualizer typename "\"inet.visualizer.canvas.linklayer.LinkBreakCanvasVisualizer\""
par HospitalNet.visualizer.linkBreakVisualizer visualizationTargetModule "\"^.^\""
par HospitalNet.visualizer.linkBreakVisualizer visualizationSubjectModule "\"^.^\""
par HospitalNet.visualizer.linkBreakVisualizer tags "\"\""
par HospitalNet.visualizer.linkBreakVisualizer displayLinkBreaks false
par HospitalNet.visualizer.linkBreakVisualizer nodeFilter "\"*\""
attr mutable ""
par HospitalNet.visualizer.linkBreakVisualizer interfaceFilter "\"*\""
attr mutable ""
par HospitalNet.visualizer.linkBreakVisualizer packetFilter "(omnetpp::cValueHolder)holder: \"*\""
attr mutable ""
par HospitalNet.visualizer.linkBreakVisualizer icon "\"status/stop\""
par HospitalNet.visualizer.linkBreakVisualizer iconTintAmount 0
par HospitalNet.visualizer.linkBreakVisualizer iconTintColor "\"\""
par HospitalNet.visualizer.linkBreakVisualizer fadeOutMode "\"realTime\""
attr enum realTime,animationTime,simulationTime
par HospitalNet.visualizer.linkBreakVisualizer fadeOutTime 1s
attr unit s
par HospitalNet.visualizer.linkBreakVisualizer fadeOutAnimationSpeed 0
par HospitalNet.visualizer.linkBreakVisualizer zIndex 2
par HospitalNet.visualizer.ieee80211Visualizer typename "\"inet.visualizer.canvas.linklayer.Ieee80211CanvasVisualizer\""
par HospitalNet.visualizer.ieee80211Visualizer visualizationTargetModule "\"^.^\""
par HospitalNet.visualizer.ieee80211Visualizer visualizationSubjectModule "\"^.^\""
par HospitalNet.visualizer.ieee80211Visualizer tags "\"\""
par HospitalNet.visualizer.ieee80211Visualizer networkNodeVisualizerModule "\"^.networkNodeVisualizer\""
par HospitalNet.visualizer.ieee80211Visualizer displayAssociations false
par HospitalNet.visualizer.ieee80211Visualizer nodeFilter "\"*\""
attr mutable ""
par HospitalNet.visualizer.ieee80211Visualizer interfaceFilter "\"*\""
attr mutable ""
par HospitalNet.visualizer.ieee80211Visualizer minPower -85dBm
attr unit dBm
par HospitalNet.visualizer.ieee80211Visualizer maxPower -50dBm
attr unit dBm
par HospitalNet.visualizer.ieee80211Visualizer icons "\"misc/signal_power_0 misc/signal_power_1 misc/signal_power_2 misc/signal_power_3\""
par HospitalNet.visualizer.ieee80211Visualizer iconColor "\"dark\""
par HospitalNet.visualizer.ieee80211Visualizer labelFont "\"<default>\""
par HospitalNet.visualizer.ieee80211Visualizer labelColor "\"black\""
par HospitalNet.visualizer.ieee80211Visualizer placementHint "\"top\""
par HospitalNet.visualizer.ieee80211Visualizer placementPriority 0
par HospitalNet.visualizer.ieee80211Visualizer zIndex 2
par HospitalNet.visualizer.networkRouteVisualizer typename "\"inet.visualizer.canvas.networklayer.NetworkRouteCanvasVisualizer\""
par HospitalNet.visualizer.networkRouteVisualizer visualizationTargetModule "\"^.^\""
par HospitalNet.visualizer.networkRouteVisualizer visualizationSubjectModule "\"^.^\""
par HospitalNet.visualizer.networkRouteVisualizer tags "\"\""
par HospitalNet.visualizer.networkRouteVisualizer displayRoutes false
par HospitalNet.visualizer.networkRouteVisualizer startPathSignal "\"packetReceivedFromUpper\""
par HospitalNet.visualizer.networkRouteVisualizer extendPathSignal "\"packetReceivedFromLower\""
par HospitalNet.visualizer.networkRouteVisualizer endPathSignal "\"packetSentToUpper\""
par HospitalNet.visualizer.networkRouteVisualizer nodeFilter "\"*\""
attr mutable ""
par HospitalNet.visualizer.networkRouteVisualizer packetFilter "(omnetpp::cValueHolder)holder: \"*\""
attr mutable ""
par HospitalNet.visualizer.networkRouteVisualizer lineColor "\"dark\""
par HospitalNet.visualizer.networkRouteVisualizer lineStyle "\"solid\""
par HospitalNet.visualizer.networkRouteVisualizer lineWidth 3
par HospitalNet.visualizer.networkRouteVisualizer lineSmooth false
par HospitalNet.visualizer.networkRouteVisualizer lineShift 16
par HospitalNet.visualizer.networkRouteVisualizer lineShiftMode "\"normal\""
par HospitalNet.visualizer.networkRouteVisualizer lineContactSpacing 3
par HospitalNet.visualizer.networkRouteVisualizer lineContactMode "\"rectangular\""
attr enum circular,rectangular
par HospitalNet.visualizer.networkRouteVisualizer labelFormat "\"%n\""
par HospitalNet.visualizer.networkRouteVisualizer labelFont "\"<default>, 8px\""
par HospitalNet.visualizer.networkRouteVisualizer labelColor "\"\""
par HospitalNet.visualizer.networkRouteVisualizer fadeOutMode "\"realTime\""
attr enum realTime,animationTime,simulationTime
par HospitalNet.visualizer.networkRouteVisualizer fadeOutTime 1s
attr unit s
par HospitalNet.visualizer.networkRouteVisualizer fadeOutAnimationSpeed 0
par HospitalNet.visualizer.networkRouteVisualizer zIndex 3
par HospitalNet.visualizer.routingTableVisualizer typename "\"inet.visualizer.canvas.networklayer.RoutingTableCanvasVisualizer\""
par HospitalNet.visualizer.routingTableVisualizer visualizationTargetModule "\"^.^\""
par HospitalNet.visualizer.routingTableVisualizer visualizationSubjectModule "\"^.^\""
par HospitalNet.visualizer.routingTableVisualizer tags "\"\""
par HospitalNet.visualizer.routingTableVisualizer displayRoutingTables false
par HospitalNet.visualizer.routingTableVisualizer displayRoutesIndividually true
par HospitalNet.visualizer.routingTableVisualizer displayLabels true
par HospitalNet.visualizer.routingTableVisualizer destinationFilter "\"*\""
attr mutable ""
par HospitalNet.visualizer.routingTableVisualizer nodeFilter "\"*\""
attr mutable ""
par HospitalNet.visualizer.routingTableVisualizer lineColor "\"black\""
par HospitalNet.visualizer.routingTableVisualizer lineStyle "\"solid\""
par HospitalNet.visualizer.routingTableVisualizer lineWidth 2
par HospitalNet.visualizer.routingTableVisualizer lineShift 16
par HospitalNet.visualizer.routingTableVisualizer lineShiftMode "\"normal\""
par HospitalNet.visualizer.routingTableVisualizer lineContactSpacing 3
par HospitalNet.visualizer.routingTableVisualizer lineContactMode "\"rectangular\""
attr enum circular,rectangular
par HospitalNet.visualizer.routingTableVisualizer labelFormat "\"%d/%m -> %g (%n)\""
attr mutable ""
par HospitalNet.visualizer.routingTableVisualizer labelFont "\"<default>, 8px\""
par HospitalNet.visualizer.routingTableVisualizer labelColor "\"black\""
par HospitalNet.visualizer.routingTableVisualizer zIndex 0
par HospitalNet.visualizer.transportRouteVisualizer typename "\"inet.visualizer.canvas.transportlayer.TransportRouteCanvasVisualizer\""
par HospitalNet.visualizer.transportRouteVisualizer visualizationTargetModule "\"^.^\""
par HospitalNet.visualizer.transportRouteVisualizer visualizationSubjectModule "\"^.^\""
par HospitalNet.visualizer.transportRouteVisualizer tags "\"\""
par HospitalNet.visualizer.transportRouteVisualizer displayRoutes false
par HospitalNet.visualizer.transportRouteVisualizer startPathSignal "\"packetReceivedFromUpper\""
par HospitalNet.visualizer.transportRouteVisualizer extendPathSignal "\"packetReceivedFromLower\""
par HospitalNet.visualizer.transportRouteVisualizer endPathSignal "\"packetSentToUpper\""
par HospitalNet.visualizer.transportRouteVisualizer nodeFilter "\"*\""
attr mutable ""
par HospitalNet.visualizer.transportRouteVisualizer packetFilter "(omnetpp::cValueHolder)holder: \"*\""
attr mutable ""
par HospitalNet.visualizer.transportRouteVisualizer lineColor "\"dark\""
par HospitalNet.visualizer.transportRouteVisualizer lineStyle "\"solid\""
par HospitalNet.visualizer.transportRouteVisualizer lineWidth 3
par HospitalNet.visualizer.transportRouteVisualizer lineSmooth false
par HospitalNet.visualizer.transportRouteVisualizer lineShift 16
par HospitalNet.visualizer.transportRouteVisualizer lineShiftMode "\"normal\""
par HospitalNet.visualizer.transportRouteVisualizer lineContactSpacing 3
par HospitalNet.visualizer.transportRouteVisualizer lineContactMode "\"rectangular\""
attr enum circular,rectangular
par HospitalNet.visualizer.transportRouteVisualizer labelFormat "\"%n\""
par HospitalNet.visualizer.transportRouteVisualizer labelFont "\"<default>, 8px\""
par HospitalNet.visualizer.transportRouteVisualizer labelColor "\"\""
par HospitalNet.visualizer.transportRouteVisualizer fadeOutMode "\"realTime\""
attr enum realTime,animationTime,simulationTime
par HospitalNet.visualizer.transportRouteVisualizer fadeOutTime 1s
attr unit s
par HospitalNet.visualizer.transportRouteVisualizer fadeOutAnimationSpeed 0
par HospitalNet.visualizer.transportRouteVisualizer zIndex 4
par HospitalNet.visualizer.transportConnectionVisualizer typename "\"inet.visualizer.canvas.transportlayer.TransportConnectionCanvasVisualizer\""
par HospitalNet.visualizer.transportConnectionVisualizer visualizationTargetModule "\"^.^\""
par HospitalNet.visualizer.transportConnectionVisualizer visualizationSubjectModule "\"^.^\""
par HospitalNet.visualizer.transportConnectionVisualizer tags "\"\""
par HospitalNet.visualizer.transportConnectionVisualizer networkNodeVisualizerModule "\"^.networkNodeVisualizer\""
par HospitalNet.visualizer.transportConnectionVisualizer displayTransportConnections false
par HospitalNet.visualizer.transportConnectionVisualizer sourceNodeFilter "\"*\""
attr mutable ""
par HospitalNet.visualizer.transportConnectionVisualizer sourcePortFilter "\"*\""
attr mutable ""
par HospitalNet.visualizer.transportConnectionVisualizer destinationNodeFilter "\"*\""
attr mutable ""
par HospitalNet.visualizer.transportConnectionVisualizer destinationPortFilter "\"*\""
attr mutable ""
par HospitalNet.visualizer.transportConnectionVisualizer icon "\"misc/marker_s\""
par HospitalNet.visualizer.transportConnectionVisualizer iconColor "\"dark\""
par HospitalNet.visualizer.transportConnectionVisualizer labelFont "\"<default>\""
par HospitalNet.visualizer.transportConnectionVisualizer labelColor "\"black\""
par HospitalNet.visualizer.transportConnectionVisualizer placementHint "\"top\""
par HospitalNet.visualizer.transportConnectionVisualizer placementPriority 0
par HospitalNet.visualizer.transportConnectionVisualizer zIndex 4
par HospitalNet.visualizer.failureProtectionConfigurationVisualizer typename "\"inet.visualizer.canvas.configurator.FailureProtectionConfigurationCanvasVisualizer\""
par HospitalNet.visualizer.failureProtectionConfigurationVisualizer visualizationTargetModule "\"^.^\""
par HospitalNet.visualizer.failureProtectionConfigurationVisualizer visualizationSubjectModule "\"^.^\""
par HospitalNet.visualizer.failureProtectionConfigurationVisualizer tags "\"\""
par HospitalNet.visualizer.failureProtectionConfigurationVisualizer displayTrees false
par HospitalNet.visualizer.failureProtectionConfigurationVisualizer lineColor "\"dark\""
par HospitalNet.visualizer.failureProtectionConfigurationVisualizer lineStyle "\"solid\""
par HospitalNet.visualizer.failureProtectionConfigurationVisualizer lineWidth 3
par HospitalNet.visualizer.failureProtectionConfigurationVisualizer lineSmooth false
par HospitalNet.visualizer.failureProtectionConfigurationVisualizer lineShift 16
par HospitalNet.visualizer.failureProtectionConfigurationVisualizer lineShiftMode "\"normal\""
par HospitalNet.visualizer.failureProtectionConfigurationVisualizer lineContactSpacing 3
par HospitalNet.visualizer.failureProtectionConfigurationVisualizer lineContactMode "\"rectangular\""
attr enum circular,rectangular
par HospitalNet.visualizer.failureProtectionConfigurationVisualizer failureProtectionConfiguratorModule "\"failureProtectionConfigurator\""
par HospitalNet.visualizer.failureProtectionConfigurationVisualizer streamFilter "\"*\""
par HospitalNet.visualizer.failureProtectionConfigurationVisualizer zIndex 3
par HospitalNet.visualizer.streamRedundancyConfigurationVisualizer typename "\"inet.visualizer.canvas.configurator.StreamRedundancyConfigurationCanvasVisualizer\""
par HospitalNet.visualizer.streamRedundancyConfigurationVisualizer visualizationTargetModule "\"^.^\""
par HospitalNet.visualizer.streamRedundancyConfigurationVisualizer visualizationSubjectModule "\"^.^\""
par HospitalNet.visualizer.streamRedundancyConfigurationVisualizer tags "\"\""
par HospitalNet.visualizer.streamRedundancyConfigurationVisualizer displayTrees false
par HospitalNet.visualizer.streamRedundancyConfigurationVisualizer lineColor "\"dark\""
par HospitalNet.visualizer.streamRedundancyConfigurationVisualizer lineStyle "\"solid\""
par HospitalNet.visualizer.streamRedundancyConfigurationVisualizer lineWidth 3
par HospitalNet.visualizer.streamRedundancyConfigurationVisualizer lineSmooth false
par HospitalNet.visualizer.streamRedundancyConfigurationVisualizer lineShift 16
par HospitalNet.visualizer.streamRedundancyConfigurationVisualizer lineShiftMode "\"normal\""
par HospitalNet.visualizer.streamRedundancyConfigurationVisualizer lineContactSpacing 3
par HospitalNet.visualizer.streamRedundancyConfigurationVisualizer lineContactMode "\"rectangular\""
attr enum circular,rectangular
par HospitalNet.visualizer.streamRedundancyConfigurationVisualizer streamRedundancyConfiguratorModule "\"streamRedundancyConfigurator\""
par HospitalNet.visualizer.streamRedundancyConfigurationVisualizer streamFilter "\"*\""
par HospitalNet.visualizer.streamRedundancyConfigurationVisualizer zIndex 3
par HospitalNet.visualizer typename "\"inet.visualizer.canvas.integrated.IntegratedCanvasVisualizer\""
par HospitalNet.physicalEnvironment typename "\"inet.environment.common.PhysicalEnvironment\""
par HospitalNet.physicalEnvironment coordinateSystemModule "\"\""
par HospitalNet.physicalEnvironment temperature 293K
attr unit K
par HospitalNet.physicalEnvironment spaceMinX 0m
attr unit m
par HospitalNet.physicalEnvironment spaceMinY 0m
attr unit m
par HospitalNet.physicalEnvironment spaceMinZ -1000m
attr unit m
par HospitalNet.physicalEnvironment spaceMaxX 1000m
attr unit m
par HospitalNet.physicalEnvironment spaceMaxY 1000m
attr unit m
par HospitalNet.physicalEnvironment spaceMaxZ 1000m
attr unit m
par HospitalNet.physicalEnvironment config "<environment>...</environment> at C:/omnetpp-6.0/omnetpp-6.3.0/samples/VitalGuard_Sim/obstacle/\\indoor.xml:1"
par HospitalNet.configurator typename "\"inet.networklayer.configurator.ipv4.Ipv4NetworkConfigurator\""
par HospitalNet.configurator minLinkWeight 0.001
par HospitalNet.configurator configureIsolatedNetworksSeparatly false
par HospitalNet.configurator config "<config>...</config> at content:1"
par HospitalNet.configurator assignAddresses true
par HospitalNet.configurator assignUniqueAddresses true
par HospitalNet.configurator assignDisjunctSubnetAddresses true
par HospitalNet.configurator addStaticRoutes true
par HospitalNet.configurator addDefaultRoutes true
par HospitalNet.configurator addSubnetRoutes true
par HospitalNet.configurator addDirectRoutes true
par HospitalNet.configurator optimizeRoutes false
par HospitalNet.configurator dumpTopology false
par HospitalNet.configurator dumpLinks false
par HospitalNet.configurator dumpAddresses false
par HospitalNet.configurator dumpRoutes false
par HospitalNet.configurator dumpConfig "\"\""
par HospitalNet.radioMedium.propagation typename "\"inet.physicallayer.wireless.common.propagation.ConstantSpeedPropagation\""
par HospitalNet.radioMedium.propagation propagationSpeed 2.99792e+08mps
attr unit mps
par HospitalNet.radioMedium.propagation ignoreMovementDuringTransmission true
par HospitalNet.radioMedium.propagation ignoreMovementDuringPropagation true
par HospitalNet.radioMedium.propagation ignoreMovementDuringReception true
scalar HospitalNet.radioMedium.propagation "Arrival computation count" 4
par HospitalNet.radioMedium.analogModel typename "\"inet.physicallayer.wireless.common.analogmodel.packetlevel.ScalarAnalogModel\""
par HospitalNet.radioMedium.analogModel ignorePartialInterference false
par HospitalNet.radioMedium.backgroundNoise typename "\"inet.physicallayer.wireless.common.backgroundnoise.IsotropicScalarBackgroundNoise\""
par HospitalNet.radioMedium.backgroundNoise power -110dBm
attr unit dBm
par HospitalNet.radioMedium.backgroundNoise bandwidth "nan Hz"
attr unit Hz
par HospitalNet.radioMedium.pathLoss typename "\"inet.physicallayer.wireless.common.pathloss.FreeSpacePathLoss\""
par HospitalNet.radioMedium.pathLoss alpha 2
par HospitalNet.radioMedium.pathLoss systemLoss 0dB
attr unit dB
par HospitalNet.radioMedium.obstacleLoss typename "\"inet.physicallayer.wireless.common.obstacleloss.DielectricObstacleLoss\""
par HospitalNet.radioMedium.obstacleLoss physicalEnvironmentModule "\"physicalEnvironment\""
par HospitalNet.radioMedium.obstacleLoss enableDielectricLoss true
par HospitalNet.radioMedium.obstacleLoss enableReflectionLoss true
scalar HospitalNet.radioMedium.obstacleLoss "Obstacle loss intersection computation count" 152
scalar HospitalNet.radioMedium.obstacleLoss "Obstacle loss intersection count" 6
par HospitalNet.radioMedium.mediumLimitCache typename "\"inet.physicallayer.wireless.common.medium.MediumLimitCache\""
par HospitalNet.radioMedium.mediumLimitCache centerFrequency "nan Hz"
attr unit Hz
par HospitalNet.radioMedium.mediumLimitCache maxSpeed "nan mps"
attr unit mps
par HospitalNet.radioMedium.mediumLimitCache maxTransmissionPower "nan W"
attr unit W
par HospitalNet.radioMedium.mediumLimitCache minInterferencePower "nan dBm"
attr unit dBm
par HospitalNet.radioMedium.mediumLimitCache minReceptionPower "nan dBm"
attr unit dBm
par HospitalNet.radioMedium.mediumLimitCache maxAntennaGain 0dB
attr unit dB
par HospitalNet.radioMedium.mediumLimitCache minInterferenceTime 1e-12s
attr unit s
par HospitalNet.radioMedium.mediumLimitCache maxTransmissionDuration 0.01s
attr unit s
par HospitalNet.radioMedium.mediumLimitCache maxCommunicationRange "nan m"
attr unit m
par HospitalNet.radioMedium.mediumLimitCache maxInterferenceRange "nan m"
attr unit m
par HospitalNet.radioMedium.communicationCache typename "\"inet.physicallayer.wireless.common.communicationcache.VectorCommunicationCache\""
par HospitalNet.radioMedium typename "\"inet.physicallayer.wireless.common.medium.RadioMedium\""
par HospitalNet.radioMedium physicalEnvironmentModule "\"physicalEnvironment\""
par HospitalNet.radioMedium signalAnalogRepresentation "\"scalar\""
attr enum unitDisk,scalar,dimensional
par HospitalNet.radioMedium rangeFilter "\"\""
par HospitalNet.radioMedium radioModeFilter false
par HospitalNet.radioMedium listeningFilter false
par HospitalNet.radioMedium macAddressFilter false
par HospitalNet.radioMedium recordTransmissionLog false
par HospitalNet.radioMedium recordReceptionLog false
scalar HospitalNet.radioMedium "transmission count" 2
scalar HospitalNet.radioMedium "signal send count" 4
scalar HospitalNet.radioMedium "reception computation count" 4
scalar HospitalNet.radioMedium "interference computation count" 16
scalar HospitalNet.radioMedium "reception decision computation count" 2
scalar HospitalNet.radioMedium "listening decision computation count" 10
scalar HospitalNet.radioMedium "reception cache hit" 80
attr unit %
scalar HospitalNet.radioMedium "interference cache hit" 66.666666666667
attr unit %
scalar HospitalNet.radioMedium "noise cache hit" 0
attr unit %
scalar HospitalNet.radioMedium "snir cache hit" 50
attr unit %
scalar HospitalNet.radioMedium "reception decision cache hit" 50
attr unit %
scalar HospitalNet.radioMedium "reception result cache hit" 0
attr unit %
par HospitalNet.host[0].radioIn[0].channel typename "\"ned.IdealChannel\""
par HospitalNet.host[0].mobility typename "\"inet.mobility.single.TurtleMobility\""
par HospitalNet.host[0].mobility subjectModule "\"^\""
par HospitalNet.host[0].mobility coordinateSystemModule "\"\""
par HospitalNet.host[0].mobility displayStringTextFormat "\"p: %p\\nv: %v\""
attr mutable ""
par HospitalNet.host[0].mobility updateDisplayString true
par HospitalNet.host[0].mobility constraintAreaMinX "-inf m"
attr unit m
par HospitalNet.host[0].mobility constraintAreaMinY "-inf m"
attr unit m
par HospitalNet.host[0].mobility constraintAreaMinZ "-inf m"
attr unit m
par HospitalNet.host[0].mobility constraintAreaMaxX "inf m"
attr unit m
par HospitalNet.host[0].mobility constraintAreaMaxY "inf m"
attr unit m
par HospitalNet.host[0].mobility constraintAreaMaxZ "inf m"
attr unit m
par HospitalNet.host[0].mobility updateInterval 0.1s
attr unit s
par HospitalNet.host[0].mobility faceForward true
par HospitalNet.host[0].mobility turtleScript "<movement id=\"2\">...</movement> at C:/omnetpp-6.0/omnetpp-6.3.0/samples/VitalGuard_Sim/obstacle/\\turtle2.xml:1"
par HospitalNet.host[0].interfaceTable typename "\"inet.networklayer.common.InterfaceTable\""
par HospitalNet.host[0].interfaceTable displayAddresses false
par HospitalNet.host[0].cb typename "\"inet.common.MessageDispatcher\""
par HospitalNet.host[0].cb displayStringTextFormat "\"processed %p pk (%l)\""
par HospitalNet.host[0].cb forwardServiceRegistration true
par HospitalNet.host[0].cb forwardProtocolRegistration true
par HospitalNet.host[0].bl typename "\"inet.common.MessageDispatcher\""
par HospitalNet.host[0].bl displayStringTextFormat "\"processed %p pk (%l)\""
par HospitalNet.host[0].bl forwardServiceRegistration true
par HospitalNet.host[0].bl forwardProtocolRegistration true
par HospitalNet.host[0].li typename "\"inet.common.MessageDispatcher\""
par HospitalNet.host[0].li displayStringTextFormat "\"processed %p pk (%l)\""
par HospitalNet.host[0].li forwardServiceRegistration true
par HospitalNet.host[0].li forwardProtocolRegistration true
par HospitalNet.host[0].lo[0].upperLayerIn.channel typename "\"ned.IdealChannel\""
par HospitalNet.host[0].lo[0].lo.upperLayerOut.channel typename "\"ned.IdealChannel\""
par HospitalNet.host[0].lo[0].lo typename "\"inet.linklayer.loopback.Loopback\""
par HospitalNet.host[0].lo[0].lo interfaceTableModule "\"HospitalNet.host[0].interfaceTable\""
par HospitalNet.host[0].lo[0].lo mtu 4470B
attr unit B
scalar HospitalNet.host[0].lo[0].lo rcvdPkFromHl:count 0
attr interpolationmode none
attr recordingmode count
attr source packetReceivedFromUpper
attr title "packets received from higher layer, count"
scalar HospitalNet.host[0].lo[0].lo rcvdPkFromHl:sum(packetBytes) 0
attr interpolationmode none
attr recordingmode sum(packetBytes)
attr source packetReceivedFromUpper
attr title "packets received from higher layer, sum(packetBytes)"
scalar HospitalNet.host[0].lo[0].lo passedUpPk:count 0
attr interpolationmode none
attr recordingmode count
attr source packetSentToUpper
attr title "packets passed to higher layer, count"
scalar HospitalNet.host[0].lo[0].lo passedUpPk:sum(packetBytes) 0
attr interpolationmode none
attr recordingmode sum(packetBytes)
attr source packetSentToUpper
attr title "packets passed to higher layer, sum(packetBytes)"
par HospitalNet.host[0].lo[0] typename "\"inet.linklayer.loopback.LoopbackInterface\""
par HospitalNet.host[0].lo[0] displayStringTextFormat "\"%a (%i)\\n%m\""
par HospitalNet.host[0].lo[0] recordPcap false
par HospitalNet.host[0].lo[0] numPcapRecorders 0
par HospitalNet.host[0].lo[0] interfaceTableModule "\"HospitalNet.host[0].interfaceTable\""
scalar HospitalNet.host[0].lo[0] packetDropInterfaceDown:count 0
attr interpolationmode none
attr recordingmode count
attr source packetDropReasonIsInterfaceDown(packetDropped)
attr title "packet drops: interface down, count"
scalar HospitalNet.host[0].lo[0] packetDropInterfaceDown:sum(packetBytes) 0
attr interpolationmode none
attr recordingmode sum(packetBytes)
attr source packetDropReasonIsInterfaceDown(packetDropped)
attr title "packet drops: interface down, sum(packetBytes)"
scalar HospitalNet.host[0].lo[0] packetDropNoCarrier:count 0
attr interpolationmode none
attr recordingmode count
attr source packetDropReasonIsNoCarrier(packetDropped)
attr title "packet drops: no carrier, count"
scalar HospitalNet.host[0].lo[0] packetDropNoCarrier:sum(packetBytes) 0
attr interpolationmode none
attr recordingmode sum(packetBytes)
attr source packetDropReasonIsNoCarrier(packetDropped)
attr title "packet drops: no carrier, sum(packetBytes)"
par HospitalNet.host[0].wlan[0].upperLayerIn.channel typename "\"ned.IdealChannel\""
par HospitalNet.host[0].wlan[0].radioIn.channel typename "\"ned.IdealChannel\""
par HospitalNet.host[0].wlan[0].mac.upperLayerOut.channel typename "\"ned.IdealChannel\""
par HospitalNet.host[0].wlan[0].queue typename "\"inet.queueing.queue.DropTailQueue\""
par HospitalNet.host[0].wlan[0].queue displayStringTextFormat "\"contains %p pk (%l) pushed %u\\npulled %o removed %r dropped %d\""
par HospitalNet.host[0].wlan[0].queue packetCapacity 100
par HospitalNet.host[0].wlan[0].queue dataCapacity -1b
attr unit b
par HospitalNet.host[0].wlan[0].queue dropperClass "\"inet::queueing::PacketAtCollectionEndDropper\""
par HospitalNet.host[0].wlan[0].queue comparatorClass "\"\""
par HospitalNet.host[0].wlan[0].queue bufferModule "\"\""
scalar HospitalNet.host[0].wlan[0].queue queueLength:last 0
attr autoWarmupFilter false
attr interpolationmode sample-hold
attr recordingmode last
attr source "warmup(atomic(constant0(packetPushEnded) + count(packetPushStarted) - count(packetPulled) - count(packetRemoved) - count(packetDropped)))"
attr title "queue length, last"
attr unit pk
scalar HospitalNet.host[0].wlan[0].queue queueLength:max 0
attr autoWarmupFilter false
attr interpolationmode sample-hold
attr recordingmode max
attr source "warmup(atomic(constant0(packetPushEnded) + count(packetPushStarted) - count(packetPulled) - count(packetRemoved) - count(packetDropped)))"
attr title "queue length, max"
attr unit pk
scalar HospitalNet.host[0].wlan[0].queue queueLength:timeavg 0
attr autoWarmupFilter false
attr interpolationmode sample-hold
attr recordingmode timeavg
attr source "warmup(atomic(constant0(packetPushEnded) + count(packetPushStarted) - count(packetPulled) - count(packetRemoved) - count(packetDropped)))"
attr title "queue length, timeavg"
attr unit pk
scalar HospitalNet.host[0].wlan[0].queue queueBitLength:last 0
attr autoWarmupFilter false
attr interpolationmode sample-hold
attr recordingmode last
attr source "warmup(atomic(constant0(packetPushEnded) + sum(packetLength(packetPushStarted)) - sum(packetLength(packetPulled)) - sum(packetLength(packetRemoved)) - sum(packetLength(packetDropped))))"
attr title "queue bit length, last"
attr unit b
scalar HospitalNet.host[0].wlan[0].queue queueBitLength:max 0
attr autoWarmupFilter false
attr interpolationmode sample-hold
attr recordingmode max
attr source "warmup(atomic(constant0(packetPushEnded) + sum(packetLength(packetPushStarted)) - sum(packetLength(packetPulled)) - sum(packetLength(packetRemoved)) - sum(packetLength(packetDropped))))"
attr title "queue bit length, max"
attr unit b
scalar HospitalNet.host[0].wlan[0].queue queueBitLength:timeavg 0
attr autoWarmupFilter false
attr interpolationmode sample-hold
attr recordingmode timeavg
attr source "warmup(atomic(constant0(packetPushEnded) + sum(packetLength(packetPushStarted)) - sum(packetLength(packetPulled)) - sum(packetLength(packetRemoved)) - sum(packetLength(packetDropped))))"
attr title "queue bit length, timeavg"
attr unit b
statistic HospitalNet.host[0].wlan[0].queue queueingTime:histogram
field count 0
field mean -nan(ind)
field stddev nan
field min nan
field max nan
field sum 0
field sqrsum 0
attr interpolationmode none
attr recordingmode histogram
attr source queueingTime(packetPulled)
attr title "queueing times"
attr unit s
bin	-inf	0
bin	0	0
bin	1	0
scalar HospitalNet.host[0].wlan[0].queue outgoingPackets:count 0
attr recordingmode count
attr source packetPulled
attr title "outgoing packets, count"
attr unit pk
scalar HospitalNet.host[0].wlan[0].queue outgoingPacketLengths:sum 0
attr interpolationmode none
attr recordingmode sum
attr source packetLength(packetPulled)
attr title "outgoing packet lengths, sum"
attr unit b
statistic HospitalNet.host[0].wlan[0].queue outgoingPacketLengths:histogram
field count 0
field mean -nan(ind)
field stddev nan
field min nan
field max nan
field sum 0
field sqrsum 0
attr interpolationmode none
attr recordingmode histogram
attr source packetLength(packetPulled)
attr title "outgoing packet lengths"
attr unit b
bin	-inf	0
bin	0	0
bin	1	0
statistic HospitalNet.host[0].wlan[0].queue flowQueueingTime:histogram
field count 0
field mean -nan(ind)
field stddev nan
field min nan
field max nan
field sum 0
field sqrsum 0
attr interpolationmode none
attr recordingmode histogram
attr source queueingTime(demuxFlow(packetPulled))
attr title "flow queueing times"
attr unit s
bin	-inf	0
bin	0	0
bin	1	0
scalar HospitalNet.host[0].wlan[0].queue incomingPackets:count 0
attr recordingmode count
attr source packetPushStarted
attr title "incoming packets, count"
attr unit pk
scalar HospitalNet.host[0].wlan[0].queue incomingPacketLengths:sum 0
attr interpolationmode none
attr recordingmode sum
attr source packetLength(packetPushStarted)
attr title "incoming packet lengths, sum"
attr unit b
statistic HospitalNet.host[0].wlan[0].queue incomingPacketLengths:histogram
field count 0
field mean -nan(ind)
field stddev nan
field min nan
field max nan
field sum 0
field sqrsum 0
attr interpolationmode none
attr recordingmode histogram
attr source packetLength(packetPushStarted)
attr title "incoming packet lengths"
attr unit b
bin	-inf	0
bin	0	0
bin	1	0
scalar HospitalNet.host[0].wlan[0].queue droppedPacketsQueueOverflow:count 0
attr interpolationmode none
attr recordingmode count
attr source packetDropReasonIsQueueOverflow(packetDropped)
attr title "dropped packets: queue overflow, count"
attr unit pk
scalar HospitalNet.host[0].wlan[0].queue droppedPacketLengthsQueueOverflow:sum 0
attr interpolationmode none
attr recordingmode sum
attr source packetLength(packetDropReasonIsQueueOverflow(packetDropped))
attr title "dropped packet lengths: queue overflow, sum"
attr unit b
par HospitalNet.host[0].wlan[0].mac typename "\"inet.linklayer.ieee802154.Ieee802154NarrowbandMac\""
par HospitalNet.host[0].wlan[0].mac interfaceTableModule "\"HospitalNet.host[0].interfaceTable\""
par HospitalNet.host[0].wlan[0].mac address "\"auto\""
attr mutable ""
par HospitalNet.host[0].wlan[0].mac headerLength 72b
attr unit b
par HospitalNet.host[0].wlan[0].mac mtu 118B
attr unit B
par HospitalNet.host[0].wlan[0].mac bitrate 250000bps
attr unit bps
par HospitalNet.host[0].wlan[0].mac ccaDetectionTime 0.000128s
attr unit s
par HospitalNet.host[0].wlan[0].mac rxSetupTime 0s
attr unit s
par HospitalNet.host[0].wlan[0].mac aTurnaroundTime 0.000192s
attr unit s
par HospitalNet.host[0].wlan[0].mac useMACAcks true
par HospitalNet.host[0].wlan[0].mac macMaxFrameRetries 3
par HospitalNet.host[0].wlan[0].mac macAckWaitDuration 0.00056s
attr unit s
par HospitalNet.host[0].wlan[0].mac ackLength 40b
attr unit b
par HospitalNet.host[0].wlan[0].mac sifs 0.000192s
attr unit s
par HospitalNet.host[0].wlan[0].mac backoffMethod "\"exponential\""
par HospitalNet.host[0].wlan[0].mac macMaxCSMABackoffs 4
par HospitalNet.host[0].wlan[0].mac aUnitBackoffPeriod 0.00032s
attr unit s
par HospitalNet.host[0].wlan[0].mac contentionWindow 2
par HospitalNet.host[0].wlan[0].mac macMinBE 3
par HospitalNet.host[0].wlan[0].mac macMaxBE 5
par HospitalNet.host[0].wlan[0].mac radioModule "\"^.radio\""
scalar HospitalNet.host[0].wlan[0].mac nbTxFrames 0
scalar HospitalNet.host[0].wlan[0].mac nbRxFrames 1
scalar HospitalNet.host[0].wlan[0].mac nbDroppedFrames 0
scalar HospitalNet.host[0].wlan[0].mac nbMissedAcks 0
scalar HospitalNet.host[0].wlan[0].mac nbRecvdAcks 0
scalar HospitalNet.host[0].wlan[0].mac nbTxAcks 0
scalar HospitalNet.host[0].wlan[0].mac nbDuplicates 0
scalar HospitalNet.host[0].wlan[0].mac meanBackoff 0
scalar HospitalNet.host[0].wlan[0].mac nbBackoffs 0
scalar HospitalNet.host[0].wlan[0].mac backoffDurations 0
scalar HospitalNet.host[0].wlan[0].mac packetDropNotAddressToUs:count 0
attr interpolationmode none
attr recordingmode count
attr source packetDropReasonIsNotAddressedToUs(packetDropped)
attr title "packet drop: not addressed to us, count"
scalar HospitalNet.host[0].wlan[0].mac packetDropNotAddressToUs:sum(packetBytes) 0
attr interpolationmode none
attr recordingmode sum(packetBytes)
attr source packetDropReasonIsNotAddressedToUs(packetDropped)
attr title "packet drop: not addressed to us, sum(packetBytes)"
scalar HospitalNet.host[0].wlan[0].mac packetDropIncorrectlyReceived:count 0
attr interpolationmode none
attr recordingmode count
attr source packetDropReasonIsIncorrectlyReceived(packetDropped)
attr title "packet drop: incorrectly received, count"
scalar HospitalNet.host[0].wlan[0].mac packetDropIncorrectlyReceived:sum(packetBytes) 0
attr interpolationmode none
attr recordingmode sum(packetBytes)
attr source packetDropReasonIsIncorrectlyReceived(packetDropped)
attr title "packet drop: incorrectly received, sum(packetBytes)"
scalar HospitalNet.host[0].wlan[0].mac packetDropQueueOverflow:count 0
attr interpolationmode none
attr recordingmode count
attr source packetDropReasonIsQueueOverflow(packetDropped)
attr title "packet drop: queue overflow, count"
scalar HospitalNet.host[0].wlan[0].mac packetDropQueueOverflow:sum(packetBytes) 0
attr interpolationmode none
attr recordingmode sum(packetBytes)
attr source packetDropReasonIsQueueOverflow(packetDropped)
attr title "packet drop: queue overflow, sum(packetBytes)"
scalar HospitalNet.host[0].wlan[0].mac packetDropRetryLimitReached:count 0
attr interpolationmode none
attr recordingmode count
attr source packetDropReasonIsRetryLimitReached(packetDropped)
attr title "packet drop: retry limit reached, count"
scalar HospitalNet.host[0].wlan[0].mac packetDropRetryLimitReached:sum(packetBytes) 0
attr interpolationmode none
attr recordingmode sum(packetBytes)
attr source packetDropReasonIsRetryLimitReached(packetDropped)
attr title "packet drop: retry limit reached, sum(packetBytes)"
scalar HospitalNet.host[0].wlan[0].mac packetDropBackoffLimitReached:count 0
attr interpolationmode none
attr recordingmode count
attr source packetDropReasonIsCongestion(packetDropped)
attr title "packet drop: backoff limit reached, count"
scalar HospitalNet.host[0].wlan[0].mac packetDropBackoffLimitReached:sum(packetBytes) 0
attr interpolationmode none
attr recordingmode sum(packetBytes)
attr source packetDropReasonIsCongestion(packetDropped)
attr title "packet drop: backoff limit reached, sum(packetBytes)"
scalar HospitalNet.host[0].wlan[0].mac linkBroken:count 0
attr interpolationmode none
attr recordingmode count
attr source linkBroken
attr title "link break, count"
par HospitalNet.host[0].wlan[0].radio.antenna typename "\"inet.physicallayer.wireless.common.antenna.IsotropicAntenna\""
par HospitalNet.host[0].wlan[0].radio.antenna mobilityModule "\"^.^.^.mobility\""
par HospitalNet.host[0].wlan[0].radio.antenna numAntennas 1
par HospitalNet.host[0].wlan[0].radio.transmitter typename "\"inet.physicallayer.wireless.ieee802154.packetlevel.Ieee802154NarrowbandScalarTransmitter\""
par HospitalNet.host[0].wlan[0].radio.transmitter preambleDuration 0.000128s
attr unit s
par HospitalNet.host[0].wlan[0].radio.transmitter headerLength 16b
attr unit b
par HospitalNet.host[0].wlan[0].radio.transmitter bitrate 250000bps
attr unit bps
par HospitalNet.host[0].wlan[0].radio.transmitter power 4e-06W
attr unit W
par HospitalNet.host[0].wlan[0].radio.transmitter centerFrequency 2.45e+09Hz
attr unit Hz
par HospitalNet.host[0].wlan[0].radio.transmitter bandwidth 2.8e+06Hz
attr unit Hz
par HospitalNet.host[0].wlan[0].radio.transmitter codeRate 1
par HospitalNet.host[0].wlan[0].radio.transmitter modulation "\"DSSS-OQPSK-16\""
par HospitalNet.host[0].wlan[0].radio.receiver.errorModel typename "\"inet.physicallayer.wireless.apsk.packetlevel.errormodel.ApskErrorModel\""
par HospitalNet.host[0].wlan[0].radio.receiver.errorModel corruptionMode "\"packet\""
attr enum packet,chunk,byte,bit
par HospitalNet.host[0].wlan[0].radio.receiver.errorModel snirMode "\"min\""
attr enum min,mean
par HospitalNet.host[0].wlan[0].radio.receiver.errorModel snirOffset 0dB
attr unit dB
par HospitalNet.host[0].wlan[0].radio.receiver typename "\"inet.physicallayer.wireless.ieee802154.packetlevel.Ieee802154NarrowbandScalarReceiver\""
par HospitalNet.host[0].wlan[0].radio.receiver snirThreshold -8dB
attr unit dB
par HospitalNet.host[0].wlan[0].radio.receiver snirThresholdMode "\"min\""
attr enum min,mean
par HospitalNet.host[0].wlan[0].radio.receiver energyDetection -90dBm
attr unit dBm
par HospitalNet.host[0].wlan[0].radio.receiver sensitivity -90dBm
attr unit dBm
par HospitalNet.host[0].wlan[0].radio.receiver centerFrequency 2.45e+09Hz
attr unit Hz
par HospitalNet.host[0].wlan[0].radio.receiver bandwidth 2.8e+06Hz
attr unit Hz
par HospitalNet.host[0].wlan[0].radio.receiver modulation "\"DSSS-OQPSK-16\""
par HospitalNet.host[0].wlan[0].radio.receiver minInterferencePower -120dBm
attr unit dBm
par HospitalNet.host[0].wlan[0].radio typename "\"inet.physicallayer.wireless.ieee802154.packetlevel.Ieee802154NarrowbandScalarRadio\""
par HospitalNet.host[0].wlan[0].radio radioMediumModule "\"radioMedium\""
par HospitalNet.host[0].wlan[0].radio energySourceModule "\"\""
par HospitalNet.host[0].wlan[0].radio initialRadioMode "\"off\""
attr enum off,sleep,receiver,transmitter,transceiver
par HospitalNet.host[0].wlan[0].radio switchingTimes "\"ms 0 0 0 0 0 0 0 0 0 0 0 0 0 0 0 0 0 0 0 0 0 0 0 0 0\""
par HospitalNet.host[0].wlan[0].radio sendRawBytes false
par HospitalNet.host[0].wlan[0].radio separateTransmissionParts false
par HospitalNet.host[0].wlan[0].radio separateReceptionParts false
par HospitalNet.host[0].wlan[0].radio displayCommunicationRange true
par HospitalNet.host[0].wlan[0].radio displayInterferenceRange false
par HospitalNet.host[0].wlan[0].radio centerFrequency 2.45e+09Hz
attr unit Hz
par HospitalNet.host[0].wlan[0].radio bandwidth 2.8e+06Hz
attr unit Hz
par HospitalNet.host[0].wlan[0].radio signalAnalogRepresentation "\"scalar\""
attr enum scalar,dimensional
statistic HospitalNet.host[0].wlan[0].radio minSnir:histogram
field count 1
field mean 245094.28706236
field stddev nan
field min 245094.28706236
field max 245094.28706236
field sum 245094.28706236
field sqrsum 60071209550.607
attr recordingmode histogram
attr source minimumSnir(packetSentToUpper)
attr title "Min SNIR"
bin	-inf	0
bin	245093.78	0
bin	245093.8	0
bin	245093.82	0
bin	245093.84	0
bin	245093.86	0
bin	245093.88	0
bin	245093.9	0
bin	245093.92	0
bin	245093.94	0
bin	245093.96	0
bin	245093.98	0
bin	245094	0
bin	245094.02	0
bin	245094.04	0
bin	245094.06	0
bin	245094.08	0
bin	245094.1	0
bin	245094.12	0
bin	245094.14	0
bin	245094.16	0
bin	245094.18	0
bin	245094.2	0
bin	245094.22	0
bin	245094.24	0
bin	245094.26	0
bin	245094.28	1
bin	245094.3	0
bin	245094.32	0
bin	245094.34	0
bin	245094.36	0
bin	245094.38	0
bin	245094.4	0
bin	245094.42	0
bin	245094.44	0
bin	245094.46	0
bin	245094.48	0
bin	245094.5	0
bin	245094.52	0
bin	245094.54	0
bin	245094.56	0
bin	245094.58	0
bin	245094.6	0
bin	245094.62	0
bin	245094.64	0
bin	245094.66	0
bin	245094.68	0
bin	245094.7	0
bin	245094.72	0
bin	245094.74	0
bin	245094.76	0
bin	245094.78	0
bin	245094.8	0
statistic HospitalNet.host[0].wlan[0].radio packetErrorRate:histogram
field count 1
field mean 0
field stddev nan
field min 0
field max 0
field sum 0
field sqrsum 0
attr recordingmode histogram
attr source packetErrorRate(packetSentToUpper)
attr title "Packet error rate"
bin	-inf	0
bin	-0.5	0
bin	-0.48	0
bin	-0.46	0
bin	-0.44	0
bin	-0.42	0
bin	-0.4	0
bin	-0.38	0
bin	-0.36	0
bin	-0.34	0
bin	-0.32	0
bin	-0.3	0
bin	-0.28	0
bin	-0.26	0
bin	-0.24	0
bin	-0.22	0
bin	-0.2	0
bin	-0.18	0
bin	-0.16	0
bin	-0.14	0
bin	-0.12	0
bin	-0.1	0
bin	-0.08	0
bin	-0.06	0
bin	-0.04	0
bin	-0.02	0
bin	0	1
bin	0.02	0
bin	0.04	0
bin	0.06	0
bin	0.08	0
bin	0.1	0
bin	0.12	0
bin	0.14	0
bin	0.16	0
bin	0.18	0
bin	0.2	0
bin	0.22	0
bin	0.24	0
bin	0.26	0
bin	0.28	0
bin	0.3	0
bin	0.32	0
bin	0.34	0
bin	0.36	0
bin	0.38	0
bin	0.4	0
bin	0.42	0
bin	0.44	0
bin	0.46	0
bin	0.48	0
bin	0.5	0
statistic HospitalNet.host[0].wlan[0].radio bitErrorRate:histogram
field count 1
field mean 0
field stddev nan
field min 0
field max 0
field sum 0
field sqrsum 0
attr recordingmode histogram
attr source bitErrorRate(packetSentToUpper)
attr title "Bit error rate"
bin	-inf	0
bin	-0.5	0
bin	-0.48	0
bin	-0.46	0
bin	-0.44	0
bin	-0.42	0
bin	-0.4	0
bin	-0.38	0
bin	-0.36	0
bin	-0.34	0
bin	-0.32	0
bin	-0.3	0
bin	-0.28	0
bin	-0.26	0
bin	-0.24	0
bin	-0.22	0
bin	-0.2	0
bin	-0.18	0
bin	-0.16	0
bin	-0.14	0
bin	-0.12	0
bin	-0.1	0
bin	-0.08	0
bin	-0.06	0
bin	-0.04	0
bin	-0.02	0
bin	0	1
bin	0.02	0
bin	0.04	0
bin	0.06	0
bin	0.08	0
bin	0.1	0
bin	0.12	0
bin	0.14	0
bin	0.16	0
bin	0.18	0
bin	0.2	0
bin	0.22	0
bin	0.24	0
bin	0.26	0
bin	0.28	0
bin	0.3	0
bin	0.32	0
bin	0.34	0
bin	0.36	0
bin	0.38	0
bin	0.4	0
bin	0.42	0
bin	0.44	0
bin	0.46	0
bin	0.48	0
bin	0.5	0
statistic HospitalNet.host[0].wlan[0].radio symbolErrorRate:histogram
field count 0
field mean -nan(ind)
field stddev nan
field min nan
field max nan
field sum 0
field sqrsum 0
attr recordingmode histogram
attr source symbolErrorRate(packetSentToUpper)
attr title "Symbol error rate"
bin	-inf	0
bin	0	0
bin	1	0
scalar HospitalNet.host[0].wlan[0].radio transmissionState:count 0
attr interpolationmode sample-hold
attr recordingmode count
attr source transmissionStateChanged
attr title "Radio transmission state, count"
[...]
bin	-inf	0
bin	0	0
bin	1	0
scalar HospitalNet.monitor[0].wlan[0].radio transmissionState:count 4
attr interpolationmode sample-hold
attr recordingmode count
attr source transmissionStateChanged
attr title "Radio transmission state, count"
scalar HospitalNet.monitor[0].wlan[0].radio receptionState:count 4
attr interpolationmode sample-hold
attr recordingmode count
attr source receptionStateChanged
attr title "Radio reception state, count"
scalar HospitalNet.monitor[0].wlan[0].radio radioMode:count 5
attr interpolationmode sample-hold
attr recordingmode count
attr source radioModeChanged
attr title "Radio mode, count"
par HospitalNet.monitor[0].wlan[0] typename "\"inet.linklayer.ieee802154.Ieee802154NarrowbandInterface\""
par HospitalNet.monitor[0].wlan[0] displayStringTextFormat "\"%a (%i)\\n%m\""
par HospitalNet.monitor[0].wlan[0] recordPcap false
par HospitalNet.monitor[0].wlan[0] numPcapRecorders 0
par HospitalNet.monitor[0].wlan[0] interfaceTableModule "\"HospitalNet.monitor[0].interfaceTable\""
par HospitalNet.monitor[0].wlan[0] energySourceModule "\"\""
scalar HospitalNet.monitor[0].wlan[0] packetDropInterfaceDown:count 0
attr interpolationmode none
attr recordingmode count
attr source packetDropReasonIsInterfaceDown(packetDropped)
attr title "packet drops: interface down, count"
scalar HospitalNet.monitor[0].wlan[0] packetDropInterfaceDown:sum(packetBytes) 0
attr interpolationmode none
attr recordingmode sum(packetBytes)
attr source packetDropReasonIsInterfaceDown(packetDropped)
attr title "packet drops: interface down, sum(packetBytes)"
scalar HospitalNet.monitor[0].wlan[0] packetDropNoCarrier:count 0
attr interpolationmode none
attr recordingmode count
attr source packetDropReasonIsNoCarrier(packetDropped)
attr title "packet drops: no carrier, count"
scalar HospitalNet.monitor[0].wlan[0] packetDropNoCarrier:sum(packetBytes) 0
attr interpolationmode none
attr recordingmode sum(packetBytes)
attr source packetDropReasonIsNoCarrier(packetDropped)
attr title "packet drops: no carrier, sum(packetBytes)"
par HospitalNet.monitor[0].ipv4.transportIn.channel typename "\"ned.IdealChannel\""
par HospitalNet.monitor[0].ipv4.up.out[0].channel typename "\"ned.IdealChannel\""
par HospitalNet.monitor[0].ipv4.lp.out[2].channel typename "\"ned.IdealChannel\""
par HospitalNet.monitor[0].ipv4.ifIn.channel typename "\"ned.IdealChannel\""
par HospitalNet.monitor[0].ipv4.configurator typename "\"inet.networklayer.configurator.ipv4.Ipv4NodeConfigurator\""
par HospitalNet.monitor[0].ipv4.configurator interfaceTableModule "\"HospitalNet.monitor[0].interfaceTable\""
par HospitalNet.monitor[0].ipv4.configurator routingTableModule "\"HospitalNet.monitor[0].ipv4.routingTable\""
par HospitalNet.monitor[0].ipv4.configurator networkConfiguratorModule "\"configurator\""
par HospitalNet.monitor[0].ipv4.configurator configureRoutingTable true
par HospitalNet.monitor[0].ipv4.routingTable typename "\"inet.networklayer.ipv4.Ipv4RoutingTable\""
par HospitalNet.monitor[0].ipv4.routingTable interfaceTableModule "\"HospitalNet.monitor[0].interfaceTable\""
par HospitalNet.monitor[0].ipv4.routingTable routerId "\"auto\""
par HospitalNet.monitor[0].ipv4.routingTable netmaskRoutes "\"*\""
par HospitalNet.monitor[0].ipv4.routingTable forwarding true
par HospitalNet.monitor[0].ipv4.routingTable multicastForwarding false
par HospitalNet.monitor[0].ipv4.routingTable useAdminDist false
par HospitalNet.monitor[0].ipv4.routingTable routingFile "\"\""
par HospitalNet.monitor[0].ipv4.natTable typename "\"inet.networklayer.ipv4.Ipv4NatTable\""
par HospitalNet.monitor[0].ipv4.natTable networkProtocolModule "\"^.ip\""
par HospitalNet.monitor[0].ipv4.natTable config "<config/> at content:1"
par HospitalNet.monitor[0].ipv4.up typename "\"inet.common.MessageDispatcher\""
par HospitalNet.monitor[0].ipv4.up displayStringTextFormat "\"processed %p pk (%l)\""
par HospitalNet.monitor[0].ipv4.up forwardServiceRegistration true
par HospitalNet.monitor[0].ipv4.up forwardProtocolRegistration true
par HospitalNet.monitor[0].ipv4.igmp typename "\"inet.networklayer.ipv4.Igmpv2\""
par HospitalNet.monitor[0].ipv4.igmp interfaceTableModule "\"HospitalNet.monitor[0].interfaceTable\""
par HospitalNet.monitor[0].ipv4.igmp routingTableModule "\"HospitalNet.monitor[0].ipv4.routingTable\""
par HospitalNet.monitor[0].ipv4.igmp crcMode "\"declared\""
attr enum declared,computed
par HospitalNet.monitor[0].ipv4.igmp enabled true
par HospitalNet.monitor[0].ipv4.igmp robustnessVariable 2
par HospitalNet.monitor[0].ipv4.igmp queryInterval 125s
attr unit s
par HospitalNet.monitor[0].ipv4.igmp queryResponseInterval 10s
attr unit s
par HospitalNet.monitor[0].ipv4.igmp groupMembershipInterval 260s
attr unit s
par HospitalNet.monitor[0].ipv4.igmp otherQuerierPresentInterval 255s
attr unit s
par HospitalNet.monitor[0].ipv4.igmp startupQueryInterval 31.25s
attr unit s
par HospitalNet.monitor[0].ipv4.igmp startupQueryCount 2
par HospitalNet.monitor[0].ipv4.igmp lastMemberQueryInterval 1s
attr unit s
par HospitalNet.monitor[0].ipv4.igmp lastMemberQueryCount 2
par HospitalNet.monitor[0].ipv4.igmp unsolicitedReportInterval 10s
attr unit s
par HospitalNet.monitor[0].ipv4.icmp typename "\"inet.networklayer.ipv4.Icmp\""
par HospitalNet.monitor[0].ipv4.icmp interfaceTableModule "\"HospitalNet.monitor[0].interfaceTable\""
par HospitalNet.monitor[0].ipv4.icmp routingTableModule "\"HospitalNet.monitor[0].ipv4.routingTable\""
par HospitalNet.monitor[0].ipv4.icmp crcMode "\"declared\""
attr enum declared,computed
attr mutable ""
par HospitalNet.monitor[0].ipv4.icmp quoteLength 8B
attr mutable ""
attr unit B
par HospitalNet.monitor[0].ipv4.mp typename "\"inet.common.MessageDispatcher\""
par HospitalNet.monitor[0].ipv4.mp displayStringTextFormat "\"processed %p pk (%l)\""
par HospitalNet.monitor[0].ipv4.mp forwardServiceRegistration true
par HospitalNet.monitor[0].ipv4.mp forwardProtocolRegistration true
par HospitalNet.monitor[0].ipv4.ip typename "\"inet.networklayer.ipv4.Ipv4\""
par HospitalNet.monitor[0].ipv4.ip interfaceTableModule "\"HospitalNet.monitor[0].interfaceTable\""
par HospitalNet.monitor[0].ipv4.ip routingTableModule "\"HospitalNet.monitor[0].ipv4.routingTable\""
par HospitalNet.monitor[0].ipv4.ip arpModule "\"HospitalNet.monitor[0].ipv4.arp\""
par HospitalNet.monitor[0].ipv4.ip icmpModule "\"HospitalNet.monitor[0].ipv4.icmp\""
par HospitalNet.monitor[0].ipv4.ip crcMode "\"declared\""
attr enum declared,computed
par HospitalNet.monitor[0].ipv4.ip timeToLive 32
par HospitalNet.monitor[0].ipv4.ip multicastTimeToLive 32
par HospitalNet.monitor[0].ipv4.ip fragmentTimeout 60s
attr unit s
par HospitalNet.monitor[0].ipv4.ip limitedBroadcast false
par HospitalNet.monitor[0].ipv4.ip directBroadcastInterfaces "\"\""
scalar HospitalNet.monitor[0].ipv4.ip packetDropAddressResolutionFailed:count 0
attr interpolationmode none
attr recordingmode count
attr source packetDropReasonIsAddressResolutionFailed(packetDropped)
attr title "packet drop: address resolution failed, count"
scalar HospitalNet.monitor[0].ipv4.ip packetDropAddressResolutionFailed:sum(packetBytes) 0
attr interpolationmode none
attr recordingmode sum(packetBytes)
attr source packetDropReasonIsAddressResolutionFailed(packetDropped)
attr title "packet drop: address resolution failed, sum(packetBytes)"
scalar HospitalNet.monitor[0].ipv4.ip packetDropHopLimitReached:count 0
attr interpolationmode none
attr recordingmode count
attr source packetDropReasonIsHopLimitReached(packetDropped)
attr title "packet drop: hop limit reached, count"
scalar HospitalNet.monitor[0].ipv4.ip packetDropHopLimitReached:sum(packetBytes) 0
attr interpolationmode none
attr recordingmode sum(packetBytes)
attr source packetDropReasonIsHopLimitReached(packetDropped)
attr title "packet drop: hop limit reached, sum(packetBytes)"
scalar HospitalNet.monitor[0].ipv4.ip packetDropForwardingDisabled:count 0
attr interpolationmode none
attr recordingmode count
attr source packetDropReasonIsForwardingDisabled(packetDropped)
attr title "packet drop: forwarding disabled, count"
scalar HospitalNet.monitor[0].ipv4.ip packetDropForwardingDisabled:sum(packetBytes) 0
attr interpolationmode none
attr recordingmode sum(packetBytes)
attr source packetDropReasonIsForwardingDisabled(packetDropped)
attr title "packet drop: forwarding disabled, sum(packetBytes)"
scalar HospitalNet.monitor[0].ipv4.ip packetDropNoInterfaceFound:count 0
attr interpolationmode none
attr recordingmode count
attr source packetDropReasonIsNoInterfaceFound(packetDropped)
attr title "packet drop: no interface found, count"
scalar HospitalNet.monitor[0].ipv4.ip packetDropNoInterfaceFound:sum(packetBytes) 0
attr interpolationmode none
attr recordingmode sum(packetBytes)
attr source packetDropReasonIsNoInterfaceFound(packetDropped)
attr title "packet drop: no interface found, sum(packetBytes)"
scalar HospitalNet.monitor[0].ipv4.ip packetDropNoRouteFound:count 0
attr interpolationmode none
attr recordingmode count
attr source packetDropReasonIsNoRouteFound(packetDropped)
attr title "packet drop: no route found, count"
scalar HospitalNet.monitor[0].ipv4.ip packetDropNoRouteFound:sum(packetBytes) 0
attr interpolationmode none
attr recordingmode sum(packetBytes)
attr source packetDropReasonIsNoRouteFound(packetDropped)
attr title "packet drop: no route found, sum(packetBytes)"
scalar HospitalNet.monitor[0].ipv4.ip packetDropUndefined:count 0
attr interpolationmode none
attr recordingmode count
attr source packetDropReasonIsUndefined(packetDropped)
attr title "packet drop: undefined, count"
scalar HospitalNet.monitor[0].ipv4.ip packetDropUndefined:sum(packetBytes) 0
attr interpolationmode none
attr recordingmode sum(packetBytes)
attr source packetDropReasonIsUndefined(packetDropped)
attr title "packet drop: undefined, sum(packetBytes)"
par HospitalNet.monitor[0].ipv4.arp typename "\"inet.networklayer.arp.ipv4.Arp\""
par HospitalNet.monitor[0].ipv4.arp interfaceTableModule "\"HospitalNet.monitor[0].interfaceTable\""
par HospitalNet.monitor[0].ipv4.arp routingTableModule "\"HospitalNet.monitor[0].ipv4.routingTable\""
par HospitalNet.monitor[0].ipv4.arp retryTimeout 1s
attr unit s
par HospitalNet.monitor[0].ipv4.arp retryCount 3
par HospitalNet.monitor[0].ipv4.arp cacheTimeout 120s
attr unit s
par HospitalNet.monitor[0].ipv4.arp proxyArpInterfaces "\"\""
scalar HospitalNet.monitor[0].ipv4.arp arpReplySent:count 0
attr recordingmode count
attr source arpReplySent
attr title "ARP replies sent, count"
scalar HospitalNet.monitor[0].ipv4.arp arpReplySent:sum(packetBytes) 0
attr recordingmode sum(packetBytes)
attr source arpReplySent
attr title "ARP replies sent, sum(packetBytes)"
scalar HospitalNet.monitor[0].ipv4.arp arpRequestSent:count 1
attr recordingmode count
attr source arpRequestSent
attr title "ARP request sent, count"
scalar HospitalNet.monitor[0].ipv4.arp arpRequestSent:sum(packetBytes) 28
attr recordingmode sum(packetBytes)
attr source arpRequestSent
attr title "ARP request sent, sum(packetBytes)"
scalar HospitalNet.monitor[0].ipv4.arp arpResolutionFailed:count 0
attr recordingmode count
attr title "ARP failed resolutions, count"
scalar HospitalNet.monitor[0].ipv4.arp arpResolutionCompleted:count 0
attr recordingmode count
attr title "ARP completed resolutions, count"
scalar HospitalNet.monitor[0].ipv4.arp arpResolutionInitiated:count 1
attr recordingmode count
attr title "ARP initiated resolutions, count"
par HospitalNet.monitor[0].ipv4.lp typename "\"inet.common.MessageDispatcher\""
par HospitalNet.monitor[0].ipv4.lp displayStringTextFormat "\"processed %p pk (%l)\""
par HospitalNet.monitor[0].ipv4.lp forwardServiceRegistration true
par HospitalNet.monitor[0].ipv4.lp forwardProtocolRegistration true
par HospitalNet.monitor[0].ipv4 typename "\"inet.networklayer.ipv4.Ipv4NetworkLayer\""
par HospitalNet.monitor[0].ipv4 forwarding true
par HospitalNet.monitor[0].ipv4 multicastForwarding false
par HospitalNet.monitor[0].ipv4 interfaceTableModule "\"HospitalNet.monitor[0].interfaceTable\""
par HospitalNet.monitor[0].ipv4 displayStringTextFormat "\"%i\""
par HospitalNet.monitor[0].nl typename "\"inet.common.MessageDispatcher\""
par HospitalNet.monitor[0].nl displayStringTextFormat "\"processed %p pk (%l)\""
par HospitalNet.monitor[0].nl forwardServiceRegistration true
par HospitalNet.monitor[0].nl forwardProtocolRegistration true
par HospitalNet.monitor[0].udp typename "\"inet.transportlayer.udp.Udp\""
par HospitalNet.monitor[0].udp interfaceTableModule "\"HospitalNet.monitor[0].interfaceTable\""
par HospitalNet.monitor[0].udp icmpModule "\"^.ipv4.icmp\""
par HospitalNet.monitor[0].udp icmpv6Module "\"^.ipv6.icmpv6\""
par HospitalNet.monitor[0].udp crcMode "\"declared\""
attr enum disabled,declared,computed
par HospitalNet.monitor[0].udp defaultMulticastLoop true
scalar HospitalNet.monitor[0].udp packetReceived:count 0
attr interpolationmode none
attr recordingmode count
attr source packetReceived
attr title "packets received, count"
scalar HospitalNet.monitor[0].udp packetReceived:sum(packetBytes) 0
attr interpolationmode none
attr recordingmode sum(packetBytes)
attr source packetReceived
attr title "packets received, sum(packetBytes)"
scalar HospitalNet.monitor[0].udp packetSent:count 1
attr interpolationmode none
attr recordingmode count
attr source packetSent
attr title "packets sent, count"
scalar HospitalNet.monitor[0].udp packetSent:sum(packetBytes) 48
attr interpolationmode none
attr recordingmode sum(packetBytes)
attr source packetSent
attr title "packets sent, sum(packetBytes)"
scalar HospitalNet.monitor[0].udp passedUpPk:count 0
attr interpolationmode none
attr recordingmode count
attr source packetSentToUpper
attr title "packets passed up, count"
scalar HospitalNet.monitor[0].udp droppedPkWrongPort:count 0
attr interpolationmode none
attr recordingmode count
attr source packetDropReasonIsNoPortFound(packetDropped)
attr title "packets dropped (wrong port), count"
scalar HospitalNet.monitor[0].udp droppedPkBadChecksum:count 0
attr interpolationmode none
attr recordingmode count
attr source packetDropReasonIsIncorrectlyReceived(packetDropped)
attr title "packets dropped (checksum error), count"
par HospitalNet.monitor[0].tcp typename "\"inet.transportlayer.tcp.Tcp\""
par HospitalNet.monitor[0].tcp crcMode "\"declared\""
attr enum declared,computed
par HospitalNet.monitor[0].tcp advertisedWindow 7504
par HospitalNet.monitor[0].tcp delayedAcksEnabled false
par HospitalNet.monitor[0].tcp nagleEnabled true
par HospitalNet.monitor[0].tcp limitedTransmitEnabled false
par HospitalNet.monitor[0].tcp increasedIWEnabled false
par HospitalNet.monitor[0].tcp sackSupport false
par HospitalNet.monitor[0].tcp windowScalingSupport false
par HospitalNet.monitor[0].tcp windowScalingFactor -1
par HospitalNet.monitor[0].tcp timestampSupport false
par HospitalNet.monitor[0].tcp mss 536
par HospitalNet.monitor[0].tcp msl 120s
attr unit s
par HospitalNet.monitor[0].tcp tcpAlgorithmClass "\"TcpReno\""
par HospitalNet.monitor[0].tcp useDataNotification false
par HospitalNet.monitor[0].tcp dupthresh 3
par HospitalNet.monitor[0].tcp initialSsthresh 4294967295
par HospitalNet.monitor[0].tcp stopOperationExtraTime 0s
attr unit s
par HospitalNet.monitor[0].tcp stopOperationTimeout 2s
attr unit s
par HospitalNet.monitor[0].tcp ecnWillingness false
par HospitalNet.monitor[0].tcp dctcpGamma 0.0625
par HospitalNet.monitor[0].tn typename "\"inet.common.MessageDispatcher\""
par HospitalNet.monitor[0].tn displayStringTextFormat "\"processed %p pk (%l)\""
par HospitalNet.monitor[0].tn forwardServiceRegistration true
par HospitalNet.monitor[0].tn forwardProtocolRegistration true
par HospitalNet.monitor[0].app[0] typename "\"inet.applications.udpapp.UdpBasicApp\""
par HospitalNet.monitor[0].app[0] interfaceTableModule "\"HospitalNet.monitor[0].interfaceTable\""
par HospitalNet.monitor[0].app[0] clockModule "\"\""
par HospitalNet.monitor[0].app[0] localPort -1
par HospitalNet.monitor[0].app[0] destAddresses "\"10.0.0.2 10.0.0.3\""
par HospitalNet.monitor[0].app[0] localAddress "\"\""
par HospitalNet.monitor[0].app[0] packetName "\"UdpBasicAppData\""
par HospitalNet.monitor[0].app[0] destPort 1000
par HospitalNet.monitor[0].app[0] messageLength 40B
attr unit B
par HospitalNet.monitor[0].app[0] startTime 15s
attr unit s
par HospitalNet.monitor[0].app[0] stopTime -1s
attr unit s
par HospitalNet.monitor[0].app[0] sendInterval 10s
attr unit s
par HospitalNet.monitor[0].app[0] timeToLive -1
par HospitalNet.monitor[0].app[0] dontFragment false
par HospitalNet.monitor[0].app[0] dscp -1
par HospitalNet.monitor[0].app[0] tos -1
par HospitalNet.monitor[0].app[0] multicastInterface "\"\""
par HospitalNet.monitor[0].app[0] receiveBroadcast false
par HospitalNet.monitor[0].app[0] joinLocalMulticastGroups false
par HospitalNet.monitor[0].app[0] stopOperationExtraTime -1s
attr unit s
par HospitalNet.monitor[0].app[0] stopOperationTimeout 2s
attr unit s
scalar HospitalNet.monitor[0].app[0] "packets sent" 1
scalar HospitalNet.monitor[0].app[0] "packets received" 0
scalar HospitalNet.monitor[0].app[0] packetReceived:count 0
attr interpolationmode none
attr recordingmode count
attr source packetReceived
attr title "packets received, count"
scalar HospitalNet.monitor[0].app[0] packetReceived:sum(packetBytes) 0
attr interpolationmode none
attr recordingmode sum(packetBytes)
attr source packetReceived
attr title "packets received, sum(packetBytes)"
statistic HospitalNet.monitor[0].app[0] rcvdPkLifetime:stats
field count 0
field mean -nan(ind)
field stddev nan
field min nan
field max nan
field sum 0
field sqrsum 0
attr interpolationmode none
attr recordingmode stats
attr source dataAge(packetReceived)
attr title "received packet lifetime"
attr unit s
scalar HospitalNet.monitor[0].app[0] packetSent:count 1
attr interpolationmode none
attr recordingmode count
attr source packetSent
attr title "packets sent, count"
scalar HospitalNet.monitor[0].app[0] packetSent:sum(packetBytes) 40
attr interpolationmode none
attr recordingmode sum(packetBytes)
attr source packetSent
attr title "packets sent, sum(packetBytes)"
par HospitalNet.monitor[0].at typename "\"inet.common.MessageDispatcher\""
par HospitalNet.monitor[0].at displayStringTextFormat "\"processed %p pk (%l)\""
par HospitalNet.monitor[0].at forwardServiceRegistration true
par HospitalNet.monitor[0].at forwardProtocolRegistration true
par HospitalNet.monitor[0] typename "\"inet.node.inet.AdhocHost\""
par HospitalNet.monitor[0] hasStatus false
par HospitalNet.monitor[0] osgModel "\"\""
par HospitalNet.monitor[0] osgModelColor "\"\""
par HospitalNet.monitor[0] canvasImage "\"\""
par HospitalNet.monitor[0] canvasImageColor "\"\""
par HospitalNet.monitor[0] recordPcap false
par HospitalNet.monitor[0] numPcapRecorders 0
par HospitalNet.monitor[0] numLoInterfaces 1
par HospitalNet.monitor[0] numWlanInterfaces 1
par HospitalNet.monitor[0] numEthInterfaces 0
par HospitalNet.monitor[0] numPppInterfaces 0
par HospitalNet.monitor[0] numTunInterfaces 0
par HospitalNet.monitor[0] numVirtInterfaces 0
par HospitalNet.monitor[0] fcsMode "\"declared\""
attr enum declared,computed
par HospitalNet.monitor[0] hasIpv4 true
par HospitalNet.monitor[0] hasIpv6 false
par HospitalNet.monitor[0] hasGn false
par HospitalNet.monitor[0] forwarding true
par HospitalNet.monitor[0] multicastForwarding false
par HospitalNet.monitor[0] hasUdp true
par HospitalNet.monitor[0] hasTcp true
par HospitalNet.monitor[0] hasSctp false
par HospitalNet.monitor[0] numApps 1
par HospitalNet typename "\"obstacle.HospitalNet\""
par HospitalNet numHosts 2
par HospitalNet numMonitors 1

