file 734772 1777231960                                          
version 3
run Outdoor-0-20260426-22:32:17-21712
attr configname Outdoor
attr datetime 20260426-22:32:17
attr datetimef 20260426-223217
attr experiment Outdoor
attr inifile omnetpp.ini
attr iterationvars ""
attr iterationvarsd ""
attr iterationvarsf ""
attr measurement ""
attr network HospitalNet
attr processid 21712
attr repetition 0
attr replication #0
attr resultdir results
attr runnumber 0
attr seedset 0
config image-path ../../inet4.5/images
config description "Wireless nodes send pings while moving around the streets"
config **.arp.typename GlobalArp
config *.numHosts 8
config *.numMonitors 16
config *.visualizer.canvasVisualizer.dataLinkVisualizer.displayLinks true
config *.visualizer.canvasVisualizer.dataLinkVisualizer.packetNameFilter "\"UdpBasicAppMsg*\""
config *.visualizer.canvasVisualizer.dataLinkVisualizer.packetFilter "\"UdpBasicAppMsg\""
config *.visualizer.canvasVisualizer.networkRouteVisualizer.packetFilter "\"UdpBasicAppMsg\""
config *.visualizer.canvasVisualizer.dataLinkVisualizer.nodeFilter "\"host* or monitor*\""
config *.visualizer.canvasVisualizer.dataLinkVisualizer.holdTime 0.1s
config *.visualizer.canvasVisualizer.mediumVisualizer.displaySignals false
config *.visualizer.canvasVisualizer.mediumVisualizer.displayTransmissions false
config *.visualizer.canvasVisualizer.sceneVisualizer.axisLength 500m
config *.visualizer.canvasVisualizer.sceneVisualizer.viewTranslation "\"25000 0\""
config *.configurator.addStaticArpEntries true
config *.configurator.optimizeRoutes false
config *.configurator.assignAddresses true
config *.configurator.assignDispatchedAddresses true
config *.configurator.addStaticRoutes true
config *.physicalEnvironment.config "xmldoc(\"outdoor.xml\")"
config *.host[*].wlan[*].radio.transmitter.power 5mW
config *.radioMedium.backgroundNoise.power -110dBm
config **.wlan[0].radio.displayInterferenceRange false
config **.wlan[0].radio.displayCommunicationRange true
config *.radioMedium.typename RadioMedium
config **.wlan[0].typename Ieee802154NarrowbandInterface
config **.wlan[0].mac.typename Ieee802154Mac
config **.wlan[0].radio.typename Ieee802154NarrowbandScalarRadio
config *.host[*].mobility.constraintAreaMinX 50m
config *.host[*].mobility.constraintAreaMaxX 850m
config *.host[*].mobility.constraintAreaMinZ 0m
config *.host[*].mobility.constraintAreaMaxZ 0m
config *.host[0].mobility.constraintAreaMinY 50m
config *.host[0].mobility.constraintAreaMaxY 140m
config *.host[4].mobility.constraintAreaMinY 50m
config *.host[4].mobility.constraintAreaMaxY 140m
config *.host[1].mobility.constraintAreaMinY 160m
config *.host[1].mobility.constraintAreaMaxY 240m
config *.host[5].mobility.constraintAreaMinY 160m
config *.host[5].mobility.constraintAreaMaxY 240m
config *.host[2].mobility.constraintAreaMinY 260m
config *.host[2].mobility.constraintAreaMaxY 340m
config *.host[6].mobility.constraintAreaMinY 260m
config *.host[6].mobility.constraintAreaMaxY 340m
config *.host[3].mobility.constraintAreaMinY 365m
config *.host[3].mobility.constraintAreaMaxY 435m
config *.host[7].mobility.constraintAreaMinY 365m
config *.host[7].mobility.constraintAreaMaxY 435m
config *.host[0].wlan[0].ipv4.address "\"10.0.0.1\""
config *.host[1].wlan[0].ipv4.address "\"10.0.0.2\""
config *.host[2].wlan[0].ipv4.address "\"10.0.0.3\""
config *.host[3].wlan[0].ipv4.address "\"10.0.0.4\""
config *.host[4].wlan[0].ipv4.address "\"10.0.0.5\""
config *.host[5].wlan[0].ipv4.address "\"10.0.0.6\""
config *.host[6].wlan[0].ipv4.address "\"10.0.0.7\""
config *.host[7].wlan[0].ipv4.address "\"10.0.0.8\""
config *.host[*].mobility.typename RectangleMobility
config *.host[*].mobility.speed "uniform(100mps, 170mps)"
config *.host[*].mobility.updateInterval 100ms
config *.host[*].mobility.startPos "uniform(0, 3)"
config *.monitor[*].mobility.typename StationaryMobility
config *.monitor[*].mobility.constraintAreaMinZ 0m
config *.monitor[*].mobility.constraintAreaMaxZ 30m
config *.monitor[0].mobility.constraintAreaMinX 149m
config *.monitor[0].mobility.constraintAreaMaxX 151m
config *.monitor[0].mobility.constraintAreaMinY 99m
config *.monitor[0].mobility.constraintAreaMaxY 101m
config *.monitor[1].mobility.constraintAreaMinX 349m
config *.monitor[1].mobility.constraintAreaMaxX 351m
config *.monitor[1].mobility.constraintAreaMinY 99m
config *.monitor[1].mobility.constraintAreaMaxY 101m
config *.monitor[2].mobility.constraintAreaMinX 549m
config *.monitor[2].mobility.constraintAreaMaxX 551m
config *.monitor[2].mobility.constraintAreaMinY 99m
config *.monitor[2].mobility.constraintAreaMaxY 101m
config *.monitor[3].mobility.constraintAreaMinX 749m
config *.monitor[3].mobility.constraintAreaMaxX 751m
config *.monitor[3].mobility.constraintAreaMinY 99m
config *.monitor[3].mobility.constraintAreaMaxY 101m
config *.monitor[4].mobility.constraintAreaMinX 149m
config *.monitor[4].mobility.constraintAreaMaxX 151m
config *.monitor[4].mobility.constraintAreaMinY 199m
config *.monitor[4].mobility.constraintAreaMaxY 201m
config *.monitor[5].mobility.constraintAreaMinX 349m
config *.monitor[5].mobility.constraintAreaMaxX 351m
config *.monitor[5].mobility.constraintAreaMinY 199m
config *.monitor[5].mobility.constraintAreaMaxY 201m
config *.monitor[6].mobility.constraintAreaMinX 549m
config *.monitor[6].mobility.constraintAreaMaxX 551m
config *.monitor[6].mobility.constraintAreaMinY 199m
config *.monitor[6].mobility.constraintAreaMaxY 201m
config *.monitor[7].mobility.constraintAreaMinX 749m
config *.monitor[7].mobility.constraintAreaMaxX 751m
config *.monitor[7].mobility.constraintAreaMinY 199m
config *.monitor[7].mobility.constraintAreaMaxY 201m
config *.monitor[8..11].mobility.constraintAreaMinY 299m
config *.monitor[8..11].mobility.constraintAreaMaxY 301m
config *.monitor[8].mobility.constraintAreaMinX 149m
config *.monitor[8].mobility.constraintAreaMaxX 151m
config *.monitor[9].mobility.constraintAreaMinX 349m
config *.monitor[9].mobility.constraintAreaMaxX 351m
config *.monitor[10].mobility.constraintAreaMinX 549m
config *.monitor[10].mobility.constraintAreaMaxX 551m
config *.monitor[11].mobility.constraintAreaMinX 749m
config *.monitor[11].mobility.constraintAreaMaxX 751m
config *.monitor[12..15].mobility.constraintAreaMinY 399m
config *.monitor[12..15].mobility.constraintAreaMaxY 401m
config *.monitor[12].mobility.constraintAreaMinX 149m
config *.monitor[12].mobility.constraintAreaMaxX 151m
config *.monitor[13].mobility.constraintAreaMinX 350m
config *.monitor[13].mobility.constraintAreaMaxX 351m
config *.monitor[14].mobility.constraintAreaMinX 549m
config *.monitor[14].mobility.constraintAreaMaxX 551m
config *.monitor[15].mobility.constraintAreaMinX 749m
config *.monitor[15].mobility.constraintAreaMaxX 751m
config **.wlan[*].mac.useAck false
config **.udp.checkAddress false
config **.udp.checksumControl false
config *.monitor[*].numApps 1
config **.monitor[*].wlan[0].radio.receiver.ignoreInterference true
config *.monitor[*].wlan[0].mgmt.typename Ieee80211MgmtAdhoc
config **.monitor[*].wlan[0].radio.transmitter.headerLength 0B
config **.ipv4.ip.fragmentation false
config *.monitor[*].app[0].typename UdpBasicApp
config *.monitor[*].app[0].localPort -1
config *.monitor[*].app[0].destAddresses "\"10.0.0.1 10.0.0.2 10.0.0.3 10.0.0.4 10.0.0.5 10.0.0.6 10.0.0.7 10.0.0.8 \""
config *.monitor[*].app[0].destPort 1000
config *.monitor[*].app[0].messageLength 100B
config *.monitor[*].app[0].sendInterval 30s
config *.monitor[*].app[0].numPacketsPerBurst 1
config *.monitor[*].app[0].source.numPacketsPerBurst 1
config *.monitor[*].app[0].count 1
config *.monitor[*].app[0].startTime "uniform(30s, 40s)"
config *.host[*].numApps 1
config *.host[*].app[0].typename SinkApp
config *.host[*].app[0].localPort 1000
config network HospitalNet
config *.configurator.addStaticArpEntries true
config *.configurator.optimizeRoutes false
config *.configurator.assignAddresses true
config **.vector-recording true
config **.scalar-recording true
config **.bin-recording true
config **.app[*].rcvdPkFromHL:vector.vector-recording true
config **.app[*].sentPk:vector.vector-recording true
config num-rngs 3
config *.host[*].mobility.rng-0 1
config *.host[*].wlan[*].mac.rng-0 2
config *.visualizer.*.mediumVisualizer.displaySignals false
config *.visualizer.*.mediumVisualizer.displaySignalDepartures false
config *.visualizer.*.mediumVisualizer.displaySignalArrivals false
config *.visualizer.canvasVisualizer.dataLinkVisualizer.displayLinks true
config *.visualizer.canvasVisualizer.dataLinkVisualizer.packetNameFilter "\"UdpBasicAppMsg\""
config *.visualizer.canvasVisualizer.dataLinkVisualizer.nodeFilter "\"host* or monitor*\""
config *.physicalEnvironment.spaceMinX 0m
config *.physicalEnvironment.spaceMinY 0m
config *.physicalEnvironment.spaceMinZ -1000m
config *.physicalEnvironment.spaceMaxX 1000m
config *.physicalEnvironment.spaceMaxY 1000m
config *.physicalEnvironment.spaceMaxZ 1000m
config *.radioMedium.obstacleLoss.typename DielectricObstacleLoss
config *.radioMedium.typename RadioMedium
config *.radioMedium.backgroundNoise.power -110dBm
config **.wlan[0].radio.displayInterferenceRange false
config **.wlan[0].radio.displayCommunicationRange true
config **.wlan[0].typename Ieee802154NarrowbandInterface
config **.wlan[0].mac.typename Ieee802154Mac
config **.wlan[0].radio.typename Ieee802154NarrowbandScalarRadio

vector 0 HospitalNet.host[0].lo[0].lo rcvdPkFromHl:vector(packetBytes) ETV
attr interpolationmode none
attr recordingmode vector(packetBytes)
attr source packetReceivedFromUpper
attr title "packets received from higher layer, packetBytes"
vector 1 HospitalNet.host[0].lo[0].lo passedUpPk:vector(packetBytes) ETV
attr interpolationmode none
attr recordingmode vector(packetBytes)
attr source packetSentToUpper
attr title "packets passed to higher layer, packetBytes"
vector 2 HospitalNet.host[0].lo[0] packetDropInterfaceDown:vector(packetBytes) ETV
attr interpolationmode none
attr recordingmode vector(packetBytes)
attr source packetDropReasonIsInterfaceDown(packetDropped)
attr title "packet drops: interface down, packetBytes"
vector 3 HospitalNet.host[0].lo[0] packetDropNoCarrier:vector(packetBytes) ETV
attr interpolationmode none
attr recordingmode vector(packetBytes)
attr source packetDropReasonIsNoCarrier(packetDropped)
attr title "packet drops: no carrier, packetBytes"
vector 4 HospitalNet.host[0].wlan[0].queue queueLength:vector ETV
attr autoWarmupFilter false
attr interpolationmode sample-hold
attr recordingmode vector
attr source "warmup(atomic(constant0(packetPushEnded) + count(packetPushStarted) - count(packetPulled) - count(packetRemoved) - count(packetDropped)))"
attr title "queue length"
attr unit pk
vector 5 HospitalNet.host[0].wlan[0].queue queueBitLength:vector ETV
attr autoWarmupFilter false
attr interpolationmode sample-hold
attr recordingmode vector
attr source "warmup(atomic(constant0(packetPushEnded) + sum(packetLength(packetPushStarted)) - sum(packetLength(packetPulled)) - sum(packetLength(packetRemoved)) - sum(packetLength(packetDropped))))"
attr title "queue bit length"
attr unit b
vector 6 HospitalNet.host[0].wlan[0].queue queueingTime:vector ETV
attr interpolationmode none
attr recordingmode vector
attr source queueingTime(packetPulled)
attr title "queueing times"
attr unit s
vector 7 HospitalNet.host[0].wlan[0].queue incomingPacketLengths:vector ETV
attr interpolationmode none
attr recordingmode vector
attr source packetLength(packetPushStarted)
attr title "incoming packet lengths"
attr unit b
vector 8 HospitalNet.host[0].wlan[0].queue incomingDataRate:vector ETV
attr interpolationmode linear
attr recordingmode vector
attr source throughput(packetPushStarted)
attr title "incoming datarate"
attr unit bps
vector 9 HospitalNet.host[0].wlan[0].queue outgoingPacketLengths:vector ETV
attr interpolationmode none
attr recordingmode vector
attr source packetLength(packetPulled)
attr title "outgoing packet lengths"
attr unit b
vector 10 HospitalNet.host[0].wlan[0].queue outgoingDataRate:vector ETV
attr interpolationmode linear
attr recordingmode vector
attr source throughput(packetPulled)
attr title "outgoing datarate"
attr unit bps
vector 11 HospitalNet.host[0].wlan[0].queue droppedPacketLengthsQueueOverflow:vector ETV
attr interpolationmode none
attr recordingmode vector
attr source packetLength(packetDropReasonIsQueueOverflow(packetDropped))
attr title "dropped packet lengths: queue overflow"
attr unit b
vector 12 HospitalNet.host[0].wlan[0].queue flowQueueingTime:vector ETV
attr interpolationmode none
attr recordingmode vector
attr source queueingTime(demuxFlow(packetPulled))
attr title "flow queueing times"
attr unit s
vector 13 HospitalNet.host[0].wlan[0].queue flowIncomingDataRate:vector ETV
attr interpolationmode linear
attr recordingmode vector
attr source throughput(flowPacketLength(demuxFlow(packetPushStarted)))
attr title "flow specific incoming data rate"
attr unit bps
vector 14 HospitalNet.host[0].wlan[0].queue flowOutgoingDataRate:vector ETV
attr interpolationmode linear
attr recordingmode vector
attr source throughput(flowPacketLength(demuxFlow(packetPulled)))
attr title "flow specific outgoing data rate"
attr unit bps
vector 15 HospitalNet.host[0].wlan[0].mac packetDropNotAddressToUs:vector(packetBytes) ETV
attr interpolationmode none
attr recordingmode vector(packetBytes)
attr source packetDropReasonIsNotAddressedToUs(packetDropped)
attr title "packet drop: not addressed to us, packetBytes"
vector 16 HospitalNet.host[0].wlan[0].mac packetDropIncorrectlyReceived:vector(packetBytes) ETV
attr interpolationmode none
attr recordingmode vector(packetBytes)
attr source packetDropReasonIsIncorrectlyReceived(packetDropped)
attr title "packet drop: incorrectly received, packetBytes"
vector 17 HospitalNet.host[0].wlan[0].mac packetDropQueueOverflow:vector(packetBytes) ETV
attr interpolationmode none
attr recordingmode vector(packetBytes)
attr source packetDropReasonIsQueueOverflow(packetDropped)
attr title "packet drop: queue overflow, packetBytes"
vector 18 HospitalNet.host[0].wlan[0].mac packetDropRetryLimitReached:vector(packetBytes) ETV
attr interpolationmode none
attr recordingmode vector(packetBytes)
attr source packetDropReasonIsRetryLimitReached(packetDropped)
attr title "packet drop: retry limit reached, packetBytes"
vector 19 HospitalNet.host[0].wlan[0].mac packetDropBackoffLimitReached:vector(packetBytes) ETV
attr interpolationmode none
attr recordingmode vector(packetBytes)
attr source packetDropReasonIsCongestion(packetDropped)
attr title "packet drop: backoff limit reached, packetBytes"
vector 20 HospitalNet.host[0].wlan[0].radio radioMode:vector ETV
attr interpolationmode sample-hold
attr recordingmode vector
attr source radioModeChanged
attr title "Radio mode"
vector 21 HospitalNet.host[0].wlan[0].radio receptionState:vector ETV
attr interpolationmode sample-hold
attr recordingmode vector
attr source receptionStateChanged
attr title "Radio reception state"
vector 22 HospitalNet.host[0].wlan[0].radio transmissionState:vector ETV
attr interpolationmode sample-hold
attr recordingmode vector
attr source transmissionStateChanged
attr title "Radio transmission state"
vector 23 HospitalNet.host[0].wlan[0] packetDropInterfaceDown:vector(packetBytes) ETV
attr interpolationmode none
attr recordingmode vector(packetBytes)
attr source packetDropReasonIsInterfaceDown(packetDropped)
attr title "packet drops: interface down, packetBytes"
vector 24 HospitalNet.host[0].wlan[0] packetDropNoCarrier:vector(packetBytes) ETV
attr interpolationmode none
attr recordingmode vector(packetBytes)
attr source packetDropReasonIsNoCarrier(packetDropped)
attr title "packet drops: no carrier, packetBytes"
vector 25 HospitalNet.host[0].ipv4.ip packetDropAddressResolutionFailed:vector(packetBytes) ETV
attr interpolationmode none
attr recordingmode vector(packetBytes)
attr source packetDropReasonIsAddressResolutionFailed(packetDropped)
attr title "packet drop: address resolution failed, packetBytes"
vector 26 HospitalNet.host[0].ipv4.ip packetDropHopLimitReached:vector(packetBytes) ETV
attr interpolationmode none
attr recordingmode vector(packetBytes)
attr source packetDropReasonIsHopLimitReached(packetDropped)
attr title "packet drop: hop limit reached, packetBytes"
vector 27 HospitalNet.host[0].ipv4.ip packetDropForwardingDisabled:vector(packetBytes) ETV
attr interpolationmode none
attr recordingmode vector(packetBytes)
attr source packetDropReasonIsForwardingDisabled(packetDropped)
attr title "packet drop: forwarding disabled, packetBytes"
vector 28 HospitalNet.host[0].ipv4.ip packetDropNoInterfaceFound:vector(packetBytes) ETV
attr interpolationmode none
attr recordingmode vector(packetBytes)
attr source packetDropReasonIsNoInterfaceFound(packetDropped)
attr title "packet drop: no interface found, packetBytes"
vector 29 HospitalNet.host[0].ipv4.ip packetDropNoRouteFound:vector(packetBytes) ETV
attr interpolationmode none
attr recordingmode vector(packetBytes)
attr source packetDropReasonIsNoRouteFound(packetDropped)
attr title "packet drop: no route found, packetBytes"
vector 30 HospitalNet.host[0].ipv4.ip packetDropUndefined:vector(packetBytes) ETV
attr interpolationmode none
attr recordingmode vector(packetBytes)
attr source packetDropReasonIsUndefined(packetDropped)
attr title "packet drop: undefined, packetBytes"
vector 31 HospitalNet.host[0].udp packetSent:vector(packetBytes) ETV
attr interpolationmode none
attr recordingmode vector(packetBytes)
attr source packetSent
attr title "packets sent, packetBytes"
vector 32 HospitalNet.host[0].udp packetReceived:vector(packetBytes) ETV
attr interpolationmode none
attr recordingmode vector(packetBytes)
attr source packetReceived
attr title "packets received, packetBytes"
vector 33 HospitalNet.host[0].udp passedUpPk:vector(count) ETV
attr interpolationmode none
attr recordingmode vector(count)
attr source packetSentToUpper
attr title "packets passed up, count"
vector 34 HospitalNet.host[0].udp droppedPkWrongPort:vector(count) ETV
attr interpolationmode none
attr recordingmode vector(count)
attr source packetDropReasonIsNoPortFound(packetDropped)
attr title "packets dropped (wrong port), count"
vector 35 HospitalNet.host[0].udp droppedPkBadChecksum:vector(count) ETV
attr interpolationmode none
attr recordingmode vector(count)
attr source packetDropReasonIsIncorrectlyReceived(packetDropped)
attr title "packets dropped (checksum error), count"
vector 36 HospitalNet.host[0].app[0].sink droppedPacketLengths:vector ETV
attr interpolationmode none
attr recordingmode vector
attr source packetLength(packetDropped)
attr title "dropped packet lengths"
attr unit b
vector 37 HospitalNet.host[0].app[0].sink droppedDataRate:vector ETV
attr interpolationmode linear
attr recordingmode vector
attr source throughput(packetDropped)
attr title "dropped data rate"
attr unit bps
vector 38 HospitalNet.host[0].app[0].sink packetLengths:vector ETV
attr interpolationmode none
attr recordingmode vector
attr source packetLength(packetPushed)
attr title "packet lengths"
attr unit b
vector 39 HospitalNet.host[0].app[0].sink dataRate:vector ETV
attr interpolationmode linear
attr recordingmode vector
attr source throughput(packetPushed)
attr title "data rate"
attr unit bps
vector 40 HospitalNet.host[0].app[0].sink meanBitLifeTimePerPacket:vector ETV
attr interpolationmode none
attr recordingmode vector
attr source weightedMeanPerGroup(groupRegionsPerPacket(lifeTimePerRegion(packetPushed)))
attr title "mean bit life time per packet"
attr unit s
vector 41 HospitalNet.host[0].app[0].sink packetJitter:vector ETV
attr interpolationmode none
attr recordingmode vector
attr source jitter(weightedMeanPerGroup(groupRegionsPerPacket(lifeTimePerRegion(packetPushed))))
attr title "packet jitter"
attr unit s
vector 42 HospitalNet.host[0].app[0].sink packetDelayDifferenceToMean:vector ETV
attr interpolationmode none
attr recordingmode vector
attr source differenceToMean(weightedMeanPerGroup(groupRegionsPerPacket(lifeTimePerRegion(packetPushed))))
attr title "packet delay difference to mean"
attr unit s
vector 43 HospitalNet.host[0].app[0].sink packetDelayVariation:vector ETV
attr recordingmode vector
attr source stddev(weightedMeanPerGroup(groupRegionsPerPacket(lifeTimePerRegion(packetPushed))))
attr title "packet delay variation"
attr unit s
vector 44 HospitalNet.host[1].lo[0].lo rcvdPkFromHl:vector(packetBytes) ETV
attr interpolationmode none
attr recordingmode vector(packetBytes)
attr source packetReceivedFromUpper
attr title "packets received from higher layer, packetBytes"
vector 45 HospitalNet.host[1].lo[0].lo passedUpPk:vector(packetBytes) ETV
attr interpolationmode none
attr recordingmode vector(packetBytes)
attr source packetSentToUpper
attr title "packets passed to higher layer, packetBytes"
vector 46 HospitalNet.host[1].lo[0] packetDropInterfaceDown:vector(packetBytes) ETV
attr interpolationmode none
attr recordingmode vector(packetBytes)
attr source packetDropReasonIsInterfaceDown(packetDropped)
attr title "packet drops: interface down, packetBytes"
vector 47 HospitalNet.host[1].lo[0] packetDropNoCarrier:vector(packetBytes) ETV
attr interpolationmode none
attr recordingmode vector(packetBytes)
attr source packetDropReasonIsNoCarrier(packetDropped)
attr title "packet drops: no carrier, packetBytes"
vector 48 HospitalNet.host[1].wlan[0].queue queueLength:vector ETV
attr autoWarmupFilter false
attr interpolationmode sample-hold
attr recordingmode vector
attr source "warmup(atomic(constant0(packetPushEnded) + count(packetPushStarted) - count(packetPulled) - count(packetRemoved) - count(packetDropped)))"
attr title "queue length"
attr unit pk
vector 49 HospitalNet.host[1].wlan[0].queue queueBitLength:vector ETV
attr autoWarmupFilter false
attr interpolationmode sample-hold
attr recordingmode vector
attr source "warmup(atomic(constant0(packetPushEnded) + sum(packetLength(packetPushStarted)) - sum(packetLength(packetPulled)) - sum(packetLength(packetRemoved)) - sum(packetLength(packetDropped))))"
attr title "queue bit length"
attr unit b
vector 50 HospitalNet.host[1].wlan[0].queue queueingTime:vector ETV
attr interpolationmode none
attr recordingmode vector
attr source queueingTime(packetPulled)
attr title "queueing times"
attr unit s
vector 51 HospitalNet.host[1].wlan[0].queue incomingPacketLengths:vector ETV
attr interpolationmode none
attr recordingmode vector
attr source packetLength(packetPushStarted)
attr title "incoming packet lengths"
attr unit b
vector 52 HospitalNet.host[1].wlan[0].queue incomingDataRate:vector ETV
attr interpolationmode linear
attr recordingmode vector
attr source throughput(packetPushStarted)
attr title "incoming datarate"
attr unit bps
vector 53 HospitalNet.host[1].wlan[0].queue outgoingPacketLengths:vector ETV
attr interpolationmode none
attr recordingmode vector
attr source packetLength(packetPulled)
attr title "outgoing packet lengths"
attr unit b
vector 54 HospitalNet.host[1].wlan[0].queue outgoingDataRate:vector ETV
attr interpolationmode linear
attr recordingmode vector
attr source throughput(packetPulled)
attr title "outgoing datarate"
attr unit bps
vector 55 HospitalNet.host[1].wlan[0].queue droppedPacketLengthsQueueOverflow:vector ETV
attr interpolationmode none
attr recordingmode vector
attr source packetLength(packetDropReasonIsQueueOverflow(packetDropped))
attr title "dropped packet lengths: queue overflow"
attr unit b
vector 56 HospitalNet.host[1].wlan[0].queue flowQueueingTime:vector ETV
attr interpolationmode none
attr recordingmode vector
attr source queueingTime(demuxFlow(packetPulled))
attr title "flow queueing times"
attr unit s
vector 57 HospitalNet.host[1].wlan[0].queue flowIncomingDataRate:vector ETV
attr interpolationmode linear
attr recordingmode vector
attr source throughput(flowPacketLength(demuxFlow(packetPushStarted)))
attr title "flow specific incoming data rate"
attr unit bps
vector 58 HospitalNet.host[1].wlan[0].queue flowOutgoingDataRate:vector ETV
attr interpolationmode linear
attr recordingmode vector
attr source throughput(flowPacketLength(demuxFlow(packetPulled)))
attr title "flow specific outgoing data rate"
attr unit bps
vector 59 HospitalNet.host[1].wlan[0].mac packetDropNotAddressToUs:vector(packetBytes) ETV
attr interpolationmode none
attr recordingmode vector(packetBytes)
attr source packetDropReasonIsNotAddressedToUs(packetDropped)
attr title "packet drop: not addressed to us, packetBytes"
vector 60 HospitalNet.host[1].wlan[0].mac packetDropIncorrectlyReceived:vector(packetBytes) ETV
attr interpolationmode none
attr recordingmode vector(packetBytes)
attr source packetDropReasonIsIncorrectlyReceived(packetDropped)
attr title "packet drop: incorrectly received, packetBytes"
vector 61 HospitalNet.host[1].wlan[0].mac packetDropQueueOverflow:vector(packetBytes) ETV
attr interpolationmode none
attr recordingmode vector(packetBytes)
attr source packetDropReasonIsQueueOverflow(packetDropped)
attr title "packet drop: queue overflow, packetBytes"
vector 62 HospitalNet.host[1].wlan[0].mac packetDropRetryLimitReached:vector(packetBytes) ETV
attr interpolationmode none
attr recordingmode vector(packetBytes)
attr source packetDropReasonIsRetryLimitReached(packetDropped)
attr title "packet drop: retry limit reached, packetBytes"
vector 63 HospitalNet.host[1].wlan[0].mac packetDropBackoffLimitReached:vector(packetBytes) ETV
attr interpolationmode none
attr recordingmode vector(packetBytes)
attr source packetDropReasonIsCongestion(packetDropped)
attr title "packet drop: backoff limit reached, packetBytes"
vector 64 HospitalNet.host[1].wlan[0].radio radioMode:vector ETV
attr interpolationmode sample-hold
attr recordingmode vector
attr source radioModeChanged
attr title "Radio mode"
vector 65 HospitalNet.host[1].wlan[0].radio receptionState:vector ETV
attr interpolationmode sample-hold
attr recordingmode vector
attr source receptionStateChanged
attr title "Radio reception state"
vector 66 HospitalNet.host[1].wlan[0].radio transmissionState:vector ETV
attr interpolationmode sample-hold
attr recordingmode vector
attr source transmissionStateChanged
attr title "Radio transmission state"
vector 67 HospitalNet.host[1].wlan[0] packetDropInterfaceDown:vector(packetBytes) ETV
attr interpolationmode none
attr recordingmode vector(packetBytes)
attr source packetDropReasonIsInterfaceDown(packetDropped)
attr title "packet drops: interface down, packetBytes"
vector 68 HospitalNet.host[1].wlan[0] packetDropNoCarrier:vector(packetBytes) ETV
attr interpolationmode none
attr recordingmode vector(packetBytes)
attr source packetDropReasonIsNoCarrier(packetDropped)
attr title "packet drops: no carrier, packetBytes"
vector 69 HospitalNet.host[1].ipv4.ip packetDropAddressResolutionFailed:vector(packetBytes) ETV
attr interpolationmode none
attr recordingmode vector(packetBytes)
attr source packetDropReasonIsAddressResolutionFailed(packetDropped)
attr title "packet drop: address resolution failed, packetBytes"
vector 70 HospitalNet.host[1].ipv4.ip packetDropHopLimitReached:vector(packetBytes) ETV
attr interpolationmode none
attr recordingmode vector(packetBytes)
attr source packetDropReasonIsHopLimitReached(packetDropped)
attr title "packet drop: hop limit reached, packetBytes"
vector 71 HospitalNet.host[1].ipv4.ip packetDropForwardingDisabled:vector(packetBytes) ETV
attr interpolationmode none
attr recordingmode vector(packetBytes)
attr source packetDropReasonIsForwardingDisabled(packetDropped)
attr title "packet drop: forwarding disabled, packetBytes"
vector 72 HospitalNet.host[1].ipv4.ip packetDropNoInterfaceFound:vector(packetBytes) ETV
attr interpolationmode none
attr recordingmode vector(packetBytes)
attr source packetDropReasonIsNoInterfaceFound(packetDropped)
attr title "packet drop: no interface found, packetBytes"
vector 73 HospitalNet.host[1].ipv4.ip packetDropNoRouteFound:vector(packetBytes) ETV
attr interpolationmode none
attr recordingmode vector(packetBytes)
attr source packetDropReasonIsNoRouteFound(packetDropped)
attr title "packet drop: no route found, packetBytes"
vector 74 HospitalNet.host[1].ipv4.ip packetDropUndefined:vector(packetBytes) ETV
attr interpolationmode none
attr recordingmode vector(packetBytes)
attr source packetDropReasonIsUndefined(packetDropped)
attr title "packet drop: undefined, packetBytes"
vector 75 HospitalNet.host[1].udp packetSent:vector(packetBytes) ETV
attr interpolationmode none
attr recordingmode vector(packetBytes)
attr source packetSent
attr title "packets sent, packetBytes"
vector 76 HospitalNet.host[1].udp packetReceived:vector(packetBytes) ETV
attr interpolationmode none
attr recordingmode vector(packetBytes)
attr source packetReceived
attr title "packets received, packetBytes"
vector 77 HospitalNet.host[1].udp passedUpPk:vector(count) ETV
attr interpolationmode none
attr recordingmode vector(count)
attr source packetSentToUpper
attr title "packets passed up, count"
vector 78 HospitalNet.host[1].udp droppedPkWrongPort:vector(count) ETV
attr interpolationmode none
attr recordingmode vector(count)
attr source packetDropReasonIsNoPortFound(packetDropped)
attr title "packets dropped (wrong port), count"
vector 79 HospitalNet.host[1].udp droppedPkBadChecksum:vector(count) ETV
attr interpolationmode none
attr recordingmode vector(count)
attr source packetDropReasonIsIncorrectlyReceived(packetDropped)
attr title "packets dropped (checksum error), count"
vector 80 HospitalNet.host[1].app[0].sink droppedPacketLengths:vector ETV
attr interpolationmode none
attr recordingmode vector
attr source packetLength(packetDropped)
attr title "dropped packet lengths"
attr unit b
vector 81 HospitalNet.host[1].app[0].sink droppedDataRate:vector ETV
attr interpolationmode linear
attr recordingmode vector
attr source throughput(packetDropped)
attr title "dropped data rate"
attr unit bps
vector 82 HospitalNet.host[1].app[0].sink packetLengths:vector ETV
attr interpolationmode none
attr recordingmode vector
attr source packetLength(packetPushed)
attr title "packet lengths"
attr unit b
vector 83 HospitalNet.host[1].app[0].sink dataRate:vector ETV
attr interpolationmode linear
attr recordingmode vector
attr source throughput(packetPushed)
attr title "data rate"
attr unit bps
vector 84 HospitalNet.host[1].app[0].sink meanBitLifeTimePerPacket:vector ETV
attr interpolationmode none
attr recordingmode vector
attr source weightedMeanPerGroup(groupRegionsPerPacket(lifeTimePerRegion(packetPushed)))
attr title "mean bit life time per packet"
attr unit s
vector 85 HospitalNet.host[1].app[0].sink packetJitter:vector ETV
attr interpolationmode none
attr recordingmode vector
attr source jitter(weightedMeanPerGroup(groupRegionsPerPacket(lifeTimePerRegion(packetPushed))))
attr title "packet jitter"
attr unit s
vector 86 HospitalNet.host[1].app[0].sink packetDelayDifferenceToMean:vector ETV
attr interpolationmode none
attr recordingmode vector
attr source differenceToMean(weightedMeanPerGroup(groupRegionsPerPacket(lifeTimePerRegion(packetPushed))))
attr title "packet delay difference to mean"
attr unit s
vector 87 HospitalNet.host[1].app[0].sink packetDelayVariation:vector ETV
attr recordingmode vector
attr source stddev(weightedMeanPerGroup(groupRegionsPerPacket(lifeTimePerRegion(packetPushed))))
attr title "packet delay variation"
attr unit s
vector 88 HospitalNet.host[2].lo[0].lo rcvdPkFromHl:vector(packetBytes) ETV
attr interpolationmode none
attr recordingmode vector(packetBytes)
attr source packetReceivedFromUpper
attr title "packets received from higher layer, packetBytes"
vector 89 HospitalNet.host[2].lo[0].lo passedUpPk:vector(packetBytes) ETV
attr interpolationmode none
attr recordingmode vector(packetBytes)
attr source packetSentToUpper
attr title "packets passed to higher layer, packetBytes"
vector 90 HospitalNet.host[2].lo[0] packetDropInterfaceDown:vector(packetBytes) ETV
attr interpolationmode none
attr recordingmode vector(packetBytes)
attr source packetDropReasonIsInterfaceDown(packetDropped)
attr title "packet drops: interface down, packetBytes"
vector 91 HospitalNet.host[2].lo[0] packetDropNoCarrier:vector(packetBytes) ETV
attr interpolationmode none
attr recordingmode vector(packetBytes)
attr source packetDropReasonIsNoCarrier(packetDropped)
attr title "packet drops: no carrier, packetBytes"
vector 92 HospitalNet.host[2].wlan[0].queue queueLength:vector ETV
attr autoWarmupFilter false
attr interpolationmode sample-hold
attr recordingmode vector
attr source "warmup(atomic(constant0(packetPushEnded) + count(packetPushStarted) - count(packetPulled) - count(packetRemoved) - count(packetDropped)))"
attr title "queue length"
attr unit pk
vector 93 HospitalNet.host[2].wlan[0].queue queueBitLength:vector ETV
attr autoWarmupFilter false
attr interpolationmode sample-hold
attr recordingmode vector
attr source "warmup(atomic(constant0(packetPushEnded) + sum(packetLength(packetPushStarted)) - sum(packetLength(packetPulled)) - sum(packetLength(packetRemoved)) - sum(packetLength(packetDropped))))"
attr title "queue bit length"
attr unit b
vector 94 HospitalNet.host[2].wlan[0].queue queueingTime:vector ETV
attr interpolationmode none
attr recordingmode vector
attr source queueingTime(packetPulled)
attr title "queueing times"
attr unit s
vector 95 HospitalNet.host[2].wlan[0].queue incomingPacketLengths:vector ETV
attr interpolationmode none
attr recordingmode vector
attr source packetLength(packetPushStarted)
attr title "incoming packet lengths"
attr unit b
vector 96 HospitalNet.host[2].wlan[0].queue incomingDataRate:vector ETV
attr interpolationmode linear
attr recordingmode vector
attr source throughput(packetPushStarted)
attr title "incoming datarate"
attr unit bps
vector 97 HospitalNet.host[2].wlan[0].queue outgoingPacketLengths:vector ETV
attr interpolationmode none
attr recordingmode vector
attr source packetLength(packetPulled)
attr title "outgoing packet lengths"
attr unit b
vector 98 HospitalNet.host[2].wlan[0].queue outgoingDataRate:vector ETV
attr interpolationmode linear
attr recordingmode vector
attr source throughput(packetPulled)
attr title "outgoing datarate"
attr unit bps
vector 99 HospitalNet.host[2].wlan[0].queue droppedPacketLengthsQueueOverflow:vector ETV
attr interpolationmode none
attr recordingmode vector
attr source packetLength(packetDropReasonIsQueueOverflow(packetDropped))
attr title "dropped packet lengths: queue overflow"
attr unit b
vector 100 HospitalNet.host[2].wlan[0].queue flowQueueingTime:vector ETV
attr interpolationmode none
attr recordingmode vector
attr source queueingTime(demuxFlow(packetPulled))
attr title "flow queueing times"
attr unit s
vector 101 HospitalNet.host[2].wlan[0].queue flowIncomingDataRate:vector ETV
attr interpolationmode linear
attr recordingmode vector
attr source throughput(flowPacketLength(demuxFlow(packetPushStarted)))
attr title "flow specific incoming data rate"
attr unit bps
vector 102 HospitalNet.host[2].wlan[0].queue flowOutgoingDataRate:vector ETV
attr interpolationmode linear
attr recordingmode vector
attr source throughput(flowPacketLength(demuxFlow(packetPulled)))
attr title "flow specific outgoing data rate"
attr unit bps
vector 103 HospitalNet.host[2].wlan[0].mac packetDropNotAddressToUs:vector(packetBytes) ETV
attr interpolationmode none
attr recordingmode vector(packetBytes)
attr source packetDropReasonIsNotAddressedToUs(packetDropped)
attr title "packet drop: not addressed to us, packetBytes"
vector 104 HospitalNet.host[2].wlan[0].mac packetDropIncorrectlyReceived:vector(packetBytes) ETV
attr interpolationmode none
attr recordingmode vector(packetBytes)
attr source packetDropReasonIsIncorrectlyReceived(packetDropped)
attr title "packet drop: incorrectly received, packetBytes"
vector 105 HospitalNet.host[2].wlan[0].mac packetDropQueueOverflow:vector(packetBytes) ETV
attr interpolationmode none
attr recordingmode vector(packetBytes)
attr source packetDropReasonIsQueueOverflow(packetDropped)
attr title "packet drop: queue overflow, packetBytes"
vector 106 HospitalNet.host[2].wlan[0].mac packetDropRetryLimitReached:vector(packetBytes) ETV
attr interpolationmode none
attr recordingmode vector(packetBytes)
attr source packetDropReasonIsRetryLimitReached(packetDropped)
attr title "packet drop: retry limit reached, packetBytes"
vector 107 HospitalNet.host[2].wlan[0].mac packetDropBackoffLimitReached:vector(packetBytes) ETV
attr interpolationmode none
attr recordingmode vector(packetBytes)
attr source packetDropReasonIsCongestion(packetDropped)
attr title "packet drop: backoff limit reached, packetBytes"
vector 108 HospitalNet.host[2].wlan[0].radio radioMode:vector ETV
attr interpolationmode sample-hold
attr recordingmode vector
attr source radioModeChanged
attr title "Radio mode"
vector 109 HospitalNet.host[2].wlan[0].radio receptionState:vector ETV
attr interpolationmode sample-hold
attr recordingmode vector
attr source receptionStateChanged
attr title "Radio reception state"
vector 110 HospitalNet.host[2].wlan[0].radio transmissionState:vector ETV
attr interpolationmode sample-hold
attr recordingmode vector
attr source transmissionStateChanged
attr title "Radio transmission state"
vector 111 HospitalNet.host[2].wlan[0] packetDropInterfaceDown:vector(packetBytes) ETV
attr interpolationmode none
attr recordingmode vector(packetBytes)
attr source packetDropReasonIsInterfaceDown(packetDropped)
attr title "packet drops: interface down, packetBytes"
vector 112 HospitalNet.host[2].wlan[0] packetDropNoCarrier:vector(packetBytes) ETV
attr interpolationmode none
attr recordingmode vector(packetBytes)
attr source packetDropReasonIsNoCarrier(packetDropped)
attr title "packet drops: no carrier, packetBytes"
vector 113 HospitalNet.host[2].ipv4.ip packetDropAddressResolutionFailed:vector(packetBytes) ETV
attr interpolationmode none
attr recordingmode vector(packetBytes)
attr source packetDropReasonIsAddressResolutionFailed(packetDropped)
attr title "packet drop: address resolution failed, packetBytes"
vector 114 HospitalNet.host[2].ipv4.ip packetDropHopLimitReached:vector(packetBytes) ETV
attr interpolationmode none
attr recordingmode vector(packetBytes)
attr source packetDropReasonIsHopLimitReached(packetDropped)
attr title "packet drop: hop limit reached, packetBytes"
vector 115 HospitalNet.host[2].ipv4.ip packetDropForwardingDisabled:vector(packetBytes) ETV
attr interpolationmode none
attr recordingmode vector(packetBytes)
attr source packetDropReasonIsForwardingDisabled(packetDropped)
attr title "packet drop: forwarding disabled, packetBytes"
vector 116 HospitalNet.host[2].ipv4.ip packetDropNoInterfaceFound:vector(packetBytes) ETV
attr interpolationmode none
attr recordingmode vector(packetBytes)
attr source packetDropReasonIsNoInterfaceFound(packetDropped)
attr title "packet drop: no interface found, packetBytes"
vector 117 HospitalNet.host[2].ipv4.ip packetDropNoRouteFound:vector(packetBytes) ETV
attr interpolationmode none
attr recordingmode vector(packetBytes)
attr source packetDropReasonIsNoRouteFound(packetDropped)
attr title "packet drop: no route found, packetBytes"
vector 118 HospitalNet.host[2].ipv4.ip packetDropUndefined:vector(packetBytes) ETV
attr interpolationmode none
attr recordingmode vector(packetBytes)
attr source packetDropReasonIsUndefined(packetDropped)
attr title "packet drop: undefined, packetBytes"
vector 119 HospitalNet.host[2].udp packetSent:vector(packetBytes) ETV
attr interpolationmode none
attr recordingmode vector(packetBytes)
attr source packetSent
attr title "packets sent, packetBytes"
vector 120 HospitalNet.host[2].udp packetReceived:vector(packetBytes) ETV
attr interpolationmode none
attr recordingmode vector(packetBytes)
attr source packetReceived
attr title "packets received, packetBytes"
vector 121 HospitalNet.host[2].udp passedUpPk:vector(count) ETV
attr interpolationmode none
attr recordingmode vector(count)
attr source packetSentToUpper
attr title "packets passed up, count"
vector 122 HospitalNet.host[2].udp droppedPkWrongPort:vector(count) ETV
attr interpolationmode none
attr recordingmode vector(count)
attr source packetDropReasonIsNoPortFound(packetDropped)
attr title "packets dropped (wrong port), count"
vector 123 HospitalNet.host[2].udp droppedPkBadChecksum:vector(count) ETV
attr interpolationmode none
attr recordingmode vector(count)
attr source packetDropReasonIsIncorrectlyReceived(packetDropped)
attr title "packets dropped (checksum error), count"
vector 124 HospitalNet.host[2].app[0].sink droppedPacketLengths:vector ETV
attr interpolationmode none
attr recordingmode vector
attr source packetLength(packetDropped)
attr title "dropped packet lengths"
attr unit b
vector 125 HospitalNet.host[2].app[0].sink droppedDataRate:vector ETV
attr interpolationmode linear
attr recordingmode vector
attr source throughput(packetDropped)
attr title "dropped data rate"
attr unit bps
vector 126 HospitalNet.host[2].app[0].sink packetLengths:vector ETV
attr interpolationmode none
attr recordingmode vector
attr source packetLength(packetPushed)
attr title "packet lengths"
attr unit b
vector 127 HospitalNet.host[2].app[0].sink dataRate:vector ETV
attr interpolationmode linear
attr recordingmode vector
attr source throughput(packetPushed)
attr title "data rate"
attr unit bps
vector 128 HospitalNet.host[2].app[0].sink meanBitLifeTimePerPacket:vector ETV
attr interpolationmode none
attr recordingmode vector
attr source weightedMeanPerGroup(groupRegionsPerPacket(lifeTimePerRegion(packetPushed)))
attr title "mean bit life time per packet"
attr unit s
vector 129 HospitalNet.host[2].app[0].sink packetJitter:vector ETV
attr interpolationmode none
attr recordingmode vector
attr source jitter(weightedMeanPerGroup(groupRegionsPerPacket(lifeTimePerRegion(packetPushed))))
attr title "packet jitter"
attr unit s
vector 130 HospitalNet.host[2].app[0].sink packetDelayDifferenceToMean:vector ETV
attr interpolationmode none
attr recordingmode vector
attr source differenceToMean(weightedMeanPerGroup(groupRegionsPerPacket(lifeTimePerRegion(packetPushed))))
attr title "packet delay difference to mean"
attr unit s
vector 131 HospitalNet.host[2].app[0].sink packetDelayVariation:vector ETV
attr recordingmode vector
attr source stddev(weightedMeanPerGroup(groupRegionsPerPacket(lifeTimePerRegion(packetPushed))))
attr title "packet delay variation"
attr unit s
vector 132 HospitalNet.host[3].lo[0].lo rcvdPkFromHl:vector(packetBytes) ETV
attr interpolationmode none
attr recordingmode vector(packetBytes)
attr source packetReceivedFromUpper
attr title "packets received from higher layer, packetBytes"
vector 133 HospitalNet.host[3].lo[0].lo passedUpPk:vector(packetBytes) ETV
attr interpolationmode none
attr recordingmode vector(packetBytes)
attr source packetSentToUpper
attr title "packets passed to higher layer, packetBytes"
vector 134 HospitalNet.host[3].lo[0] packetDropInterfaceDown:vector(packetBytes) ETV
attr interpolationmode none
attr recordingmode vector(packetBytes)
attr source packetDropReasonIsInterfaceDown(packetDropped)
attr title "packet drops: interface down, packetBytes"
vector 135 HospitalNet.host[3].lo[0] packetDropNoCarrier:vector(packetBytes) ETV
attr interpolationmode none
attr recordingmode vector(packetBytes)
attr source packetDropReasonIsNoCarrier(packetDropped)
attr title "packet drops: no carrier, packetBytes"
vector 136 HospitalNet.host[3].wlan[0].queue queueLength:vector ETV
attr autoWarmupFilter false
attr interpolationmode sample-hold
attr recordingmode vector
attr source "warmup(atomic(constant0(packetPushEnded) + count(packetPushStarted) - count(packetPulled) - count(packetRemoved) - count(packetDropped)))"
attr title "queue length"
attr unit pk
vector 137 HospitalNet.host[3].wlan[0].queue queueBitLength:vector ETV
attr autoWarmupFilter false
attr interpolationmode sample-hold
attr recordingmode vector
attr source "warmup(atomic(constant0(packetPushEnded) + sum(packetLength(packetPushStarted)) - sum(packetLength(packetPulled)) - sum(packetLength(packetRemoved)) - sum(packetLength(packetDropped))))"
attr title "queue bit length"
attr unit b
vector 138 HospitalNet.host[3].wlan[0].queue queueingTime:vector ETV
attr interpolationmode none
attr recordingmode vector
attr source queueingTime(packetPulled)
attr title "queueing times"
attr unit s
vector 139 HospitalNet.host[3].wlan[0].queue incomingPacketLengths:vector ETV
attr interpolationmode none
attr recordingmode vector
attr source packetLength(packetPushStarted)
attr title "incoming packet lengths"
attr unit b
vector 140 HospitalNet.host[3].wlan[0].queue incomingDataRate:vector ETV
attr interpolationmode linear
attr recordingmode vector
attr source throughput(packetPushStarted)
attr title "incoming datarate"
attr unit bps
vector 141 HospitalNet.host[3].wlan[0].queue outgoingPacketLengths:vector ETV
attr interpolationmode none
attr recordingmode vector
attr source packetLength(packetPulled)
attr title "outgoing packet lengths"
attr unit b
vector 142 HospitalNet.host[3].wlan[0].queue outgoingDataRate:vector ETV
attr interpolationmode linear
attr recordingmode vector
attr source throughput(packetPulled)
attr title "outgoing datarate"
attr unit bps
vector 143 HospitalNet.host[3].wlan[0].queue droppedPacketLengthsQueueOverflow:vector ETV
attr interpolationmode none
attr recordingmode vector
attr source packetLength(packetDropReasonIsQueueOverflow(packetDropped))
attr title "dropped packet lengths: queue overflow"
attr unit b
vector 144 HospitalNet.host[3].wlan[0].queue flowQueueingTime:vector ETV
attr interpolationmode none
attr recordingmode vector
attr source queueingTime(demuxFlow(packetPulled))
attr title "flow queueing times"
attr unit s
vector 145 HospitalNet.host[3].wlan[0].queue flowIncomingDataRate:vector ETV
attr interpolationmode linear
attr recordingmode vector
attr source throughput(flowPacketLength(demuxFlow(packetPushStarted)))
attr title "flow specific incoming data rate"
attr unit bps
vector 146 HospitalNet.host[3].wlan[0].queue flowOutgoingDataRate:vector ETV
attr interpolationmode linear
attr recordingmode vector
attr source throughput(flowPacketLength(demuxFlow(packetPulled)))
attr title "flow specific outgoing data rate"
attr unit bps
vector 147 HospitalNet.host[3].wlan[0].mac packetDropNotAddressToUs:vector(packetBytes) ETV
attr interpolationmode none
attr recordingmode vector(packetBytes)
attr source packetDropReasonIsNotAddressedToUs(packetDropped)
attr title "packet drop: not addressed to us, packetBytes"
vector 148 HospitalNet.host[3].wlan[0].mac packetDropIncorrectlyReceived:vector(packetBytes) ETV
attr interpolationmode none
attr recordingmode vector(packetBytes)
attr source packetDropReasonIsIncorrectlyReceived(packetDropped)
attr title "packet drop: incorrectly received, packetBytes"
vector 149 HospitalNet.host[3].wlan[0].mac packetDropQueueOverflow:vector(packetBytes) ETV
attr interpolationmode none
attr recordingmode vector(packetBytes)
attr source packetDropReasonIsQueueOverflow(packetDropped)
attr title "packet drop: queue overflow, packetBytes"
vector 150 HospitalNet.host[3].wlan[0].mac packetDropRetryLimitReached:vector(packetBytes) ETV
attr interpolationmode none
attr recordingmode vector(packetBytes)
attr source packetDropReasonIsRetryLimitReached(packetDropped)
attr title "packet drop: retry limit reached, packetBytes"
vector 151 HospitalNet.host[3].wlan[0].mac packetDropBackoffLimitReached:vector(packetBytes) ETV
attr interpolationmode none
attr recordingmode vector(packetBytes)
attr source packetDropReasonIsCongestion(packetDropped)
attr title "packet drop: backoff limit reached, packetBytes"
vector 152 HospitalNet.host[3].wlan[0].radio radioMode:vector ETV
attr interpolationmode sample-hold
attr recordingmode vector
attr source radioModeChanged
attr title "Radio mode"
vector 153 HospitalNet.host[3].wlan[0].radio receptionState:vector ETV
attr interpolationmode sample-hold
attr recordingmode vector
attr source receptionStateChanged
attr title "Radio reception state"
vector 154 HospitalNet.host[3].wlan[0].radio transmissionState:vector ETV
attr interpolationmode sample-hold
attr recordingmode vector
attr source transmissionStateChanged
attr title "Radio transmission state"
vector 155 HospitalNet.host[3].wlan[0] packetDropInterfaceDown:vector(packetBytes) ETV
attr interpolationmode none
attr recordingmode vector(packetBytes)
attr source packetDropReasonIsInterfaceDown(packetDropped)
attr title "packet drops: interface down, packetBytes"
vector 156 HospitalNet.host[3].wlan[0] packetDropNoCarrier:vector(packetBytes) ETV
attr interpolationmode none
attr recordingmode vector(packetBytes)
attr source packetDropReasonIsNoCarrier(packetDropped)
attr title "packet drops: no carrier, packetBytes"
vector 157 HospitalNet.host[3].ipv4.ip packetDropAddressResolutionFailed:vector(packetBytes) ETV
attr interpolationmode none
attr recordingmode vector(packetBytes)
attr source packetDropReasonIsAddressResolutionFailed(packetDropped)
attr title "packet drop: address resolution failed, packetBytes"
vector 158 HospitalNet.host[3].ipv4.ip packetDropHopLimitReached:vector(packetBytes) ETV
attr interpolationmode none
attr recordingmode vector(packetBytes)
attr source packetDropReasonIsHopLimitReached(packetDropped)
attr title "packet drop: hop limit reached, packetBytes"
vector 159 HospitalNet.host[3].ipv4.ip packetDropForwardingDisabled:vector(packetBytes) ETV
attr interpolationmode none
attr recordingmode vector(packetBytes)
attr source packetDropReasonIsForwardingDisabled(packetDropped)
attr title "packet drop: forwarding disabled, packetBytes"
vector 160 HospitalNet.host[3].ipv4.ip packetDropNoInterfaceFound:vector(packetBytes) ETV
attr interpolationmode none
attr recordingmode vector(packetBytes)
attr source packetDropReasonIsNoInterfaceFound(packetDropped)
attr title "packet drop: no interface found, packetBytes"
vector 161 HospitalNet.host[3].ipv4.ip packetDropNoRouteFound:vector(packetBytes) ETV
attr interpolationmode none
attr recordingmode vector(packetBytes)
attr source packetDropReasonIsNoRouteFound(packetDropped)
attr title "packet drop: no route found, packetBytes"
vector 162 HospitalNet.host[3].ipv4.ip packetDropUndefined:vector(packetBytes) ETV
attr interpolationmode none
attr recordingmode vector(packetBytes)
attr source packetDropReasonIsUndefined(packetDropped)
attr title "packet drop: undefined, packetBytes"
vector 163 HospitalNet.host[3].udp packetSent:vector(packetBytes) ETV
attr interpolationmode none
attr recordingmode vector(packetBytes)
attr source packetSent
attr title "packets sent, packetBytes"
vector 164 HospitalNet.host[3].udp packetReceived:vector(packetBytes) ETV
attr interpolationmode none
attr recordingmode vector(packetBytes)
attr source packetReceived
attr title "packets received, packetBytes"
vector 165 HospitalNet.host[3].udp passedUpPk:vector(count) ETV
attr interpolationmode none
attr recordingmode vector(count)
attr source packetSentToUpper
attr title "packets passed up, count"
vector 166 HospitalNet.host[3].udp droppedPkWrongPort:vector(count) ETV
attr interpolationmode none
attr recordingmode vector(count)
attr source packetDropReasonIsNoPortFound(packetDropped)
attr title "packets dropped (wrong port), count"
vector 167 HospitalNet.host[3].udp droppedPkBadChecksum:vector(count) ETV
attr interpolationmode none
attr recordingmode vector(count)
attr source packetDropReasonIsIncorrectlyReceived(packetDropped)
attr title "packets dropped (checksum error), count"
vector 168 HospitalNet.host[3].app[0].sink droppedPacketLengths:vector ETV
attr interpolationmode none
attr recordingmode vector
attr source packetLength(packetDropped)
attr title "dropped packet lengths"
attr unit b
vector 169 HospitalNet.host[3].app[0].sink droppedDataRate:vector ETV
attr interpolationmode linear
attr recordingmode vector
attr source throughput(packetDropped)
attr title "dropped data rate"
attr unit bps
vector 170 HospitalNet.host[3].app[0].sink packetLengths:vector ETV
attr interpolationmode none
attr recordingmode vector
attr source packetLength(packetPushed)
attr title "packet lengths"
attr unit b
vector 171 HospitalNet.host[3].app[0].sink dataRate:vector ETV
attr interpolationmode linear
attr recordingmode vector
attr source throughput(packetPushed)
attr title "data rate"
attr unit bps
vector 172 HospitalNet.host[3].app[0].sink meanBitLifeTimePerPacket:vector ETV
attr interpolationmode none
attr recordingmode vector
attr source weightedMeanPerGroup(groupRegionsPerPacket(lifeTimePerRegion(packetPushed)))
attr title "mean bit life time per packet"
attr unit s
vector 173 HospitalNet.host[3].app[0].sink packetJitter:vector ETV
attr interpolationmode none
attr recordingmode vector
attr source jitter(weightedMeanPerGroup(groupRegionsPerPacket(lifeTimePerRegion(packetPushed))))
attr title "packet jitter"
attr unit s
vector 174 HospitalNet.host[3].app[0].sink packetDelayDifferenceToMean:vector ETV
attr interpolationmode none
attr recordingmode vector
attr source differenceToMean(weightedMeanPerGroup(groupRegionsPerPacket(lifeTimePerRegion(packetPushed))))
attr title "packet delay difference to mean"
attr unit s
vector 175 HospitalNet.host[3].app[0].sink packetDelayVariation:vector ETV
attr recordingmode vector
attr source stddev(weightedMeanPerGroup(groupRegionsPerPacket(lifeTimePerRegion(packetPushed))))
attr title "packet delay variation"
attr unit s
vector 176 HospitalNet.host[4].lo[0].lo rcvdPkFromHl:vector(packetBytes) ETV
attr interpolationmode none
attr recordingmode vector(packetBytes)
attr source packetReceivedFromUpper
attr title "packets received from higher layer, packetBytes"
vector 177 HospitalNet.host[4].lo[0].lo passedUpPk:vector(packetBytes) ETV
attr interpolationmode none
attr recordingmode vector(packetBytes)
attr source packetSentToUpper
attr title "packets passed to higher layer, packetBytes"
vector 178 HospitalNet.host[4].lo[0] packetDropInterfaceDown:vector(packetBytes) ETV
attr interpolationmode none
attr recordingmode vector(packetBytes)
attr source packetDropReasonIsInterfaceDown(packetDropped)
attr title "packet drops: interface down, packetBytes"
vector 179 HospitalNet.host[4].lo[0] packetDropNoCarrier:vector(packetBytes) ETV
attr interpolationmode none
attr recordingmode vector(packetBytes)
attr source packetDropReasonIsNoCarrier(packetDropped)
attr title "packet drops: no carrier, packetBytes"
vector 180 HospitalNet.host[4].wlan[0].queue queueLength:vector ETV
attr autoWarmupFilter false
attr interpolationmode sample-hold
attr recordingmode vector
attr source "warmup(atomic(constant0(packetPushEnded) + count(packetPushStarted) - count(packetPulled) - count(packetRemoved) - count(packetDropped)))"
attr title "queue length"
attr unit pk
vector 181 HospitalNet.host[4].wlan[0].queue queueBitLength:vector ETV
attr autoWarmupFilter false
attr interpolationmode sample-hold
attr recordingmode vector
attr source "warmup(atomic(constant0(packetPushEnded) + sum(packetLength(packetPushStarted)) - sum(packetLength(packetPulled)) - sum(packetLength(packetRemoved)) - sum(packetLength(packetDropped))))"
attr title "queue bit length"
attr unit b
vector 182 HospitalNet.host[4].wlan[0].queue queueingTime:vector ETV
attr interpolationmode none
attr recordingmode vector
attr source queueingTime(packetPulled)
attr title "queueing times"
attr unit s
vector 183 HospitalNet.host[4].wlan[0].queue incomingPacketLengths:vector ETV
attr interpolationmode none
attr recordingmode vector
attr source packetLength(packetPushStarted)
attr title "incoming packet lengths"
attr unit b
vector 184 HospitalNet.host[4].wlan[0].queue incomingDataRate:vector ETV
attr interpolationmode linear
attr recordingmode vector
attr source throughput(packetPushStarted)
attr title "incoming datarate"
attr unit bps
vector 185 HospitalNet.host[4].wlan[0].queue outgoingPacketLengths:vector ETV
attr interpolationmode none
attr recordingmode vector
attr source packetLength(packetPulled)
attr title "outgoing packet lengths"
attr unit b
vector 186 HospitalNet.host[4].wlan[0].queue outgoingDataRate:vector ETV
attr interpolationmode linear
attr recordingmode vector
attr source throughput(packetPulled)
attr title "outgoing datarate"
attr unit bps
vector 187 HospitalNet.host[4].wlan[0].queue droppedPacketLengthsQueueOverflow:vector ETV
attr interpolationmode none
attr recordingmode vector
attr source packetLength(packetDropReasonIsQueueOverflow(packetDropped))
attr title "dropped packet lengths: queue overflow"
attr unit b
vector 188 HospitalNet.host[4].wlan[0].queue flowQueueingTime:vector ETV
attr interpolationmode none
attr recordingmode vector
attr source queueingTime(demuxFlow(packetPulled))
attr title "flow queueing times"
attr unit s
vector 189 HospitalNet.host[4].wlan[0].queue flowIncomingDataRate:vector ETV
attr interpolationmode linear
attr recordingmode vector
attr source throughput(flowPacketLength(demuxFlow(packetPushStarted)))
attr title "flow specific incoming data rate"
attr unit bps
vector 190 HospitalNet.host[4].wlan[0].queue flowOutgoingDataRate:vector ETV
attr interpolationmode linear
attr recordingmode vector
attr source throughput(flowPacketLength(demuxFlow(packetPulled)))
attr title "flow specific outgoing data rate"
attr unit bps
vector 191 HospitalNet.host[4].wlan[0].mac packetDropNotAddressToUs:vector(packetBytes) ETV
attr interpolationmode none
attr recordingmode vector(packetBytes)
attr source packetDropReasonIsNotAddressedToUs(packetDropped)
attr title "packet drop: not addressed to us, packetBytes"
vector 192 HospitalNet.host[4].wlan[0].mac packetDropIncorrectlyReceived:vector(packetBytes) ETV
attr interpolationmode none
attr recordingmode vector(packetBytes)
attr source packetDropReasonIsIncorrectlyReceived(packetDropped)
attr title "packet drop: incorrectly received, packetBytes"
vector 193 HospitalNet.host[4].wlan[0].mac packetDropQueueOverflow:vector(packetBytes) ETV
attr interpolationmode none
attr recordingmode vector(packetBytes)
attr source packetDropReasonIsQueueOverflow(packetDropped)
attr title "packet drop: queue overflow, packetBytes"
vector 194 HospitalNet.host[4].wlan[0].mac packetDropRetryLimitReached:vector(packetBytes) ETV
attr interpolationmode none
attr recordingmode vector(packetBytes)
attr source packetDropReasonIsRetryLimitReached(packetDropped)
attr title "packet drop: retry limit reached, packetBytes"
vector 195 HospitalNet.host[4].wlan[0].mac packetDropBackoffLimitReached:vector(packetBytes) ETV
attr interpolationmode none
attr recordingmode vector(packetBytes)
attr source packetDropReasonIsCongestion(packetDropped)
attr title "packet drop: backoff limit reached, packetBytes"
vector 196 HospitalNet.host[4].wlan[0].radio radioMode:vector ETV
attr interpolationmode sample-hold
attr recordingmode vector
attr source radioModeChanged
attr title "Radio mode"
vector 197 HospitalNet.host[4].wlan[0].radio receptionState:vector ETV
attr interpolationmode sample-hold
attr recordingmode vector
attr source receptionStateChanged
attr title "Radio reception state"
vector 198 HospitalNet.host[4].wlan[0].radio transmissionState:vector ETV
attr interpolationmode sample-hold
attr recordingmode vector
attr source transmissionStateChanged
attr title "Radio transmission state"
vector 199 HospitalNet.host[4].wlan[0] packetDropInterfaceDown:vector(packetBytes) ETV
attr interpolationmode none
attr recordingmode vector(packetBytes)
attr source packetDropReasonIsInterfaceDown(packetDropped)
attr title "packet drops: interface down, packetBytes"
vector 200 HospitalNet.host[4].wlan[0] packetDropNoCarrier:vector(packetBytes) ETV
attr interpolationmode none
attr recordingmode vector(packetBytes)
attr source packetDropReasonIsNoCarrier(packetDropped)
attr title "packet drops: no carrier, packetBytes"
vector 201 HospitalNet.host[4].ipv4.ip packetDropAddressResolutionFailed:vector(packetBytes) ETV
attr interpolationmode none
attr recordingmode vector(packetBytes)
attr source packetDropReasonIsAddressResolutionFailed(packetDropped)
attr title "packet drop: address resolution failed, packetBytes"
vector 202 HospitalNet.host[4].ipv4.ip packetDropHopLimitReached:vector(packetBytes) ETV
attr interpolationmode none
attr recordingmode vector(packetBytes)
attr source packetDropReasonIsHopLimitReached(packetDropped)
attr title "packet drop: hop limit reached, packetBytes"
vector 203 HospitalNet.host[4].ipv4.ip packetDropForwardingDisabled:vector(packetBytes) ETV
attr interpolationmode none
attr recordingmode vector(packetBytes)
attr source packetDropReasonIsForwardingDisabled(packetDropped)
attr title "packet drop: forwarding disabled, packetBytes"
vector 204 HospitalNet.host[4].ipv4.ip packetDropNoInterfaceFound:vector(packetBytes) ETV
attr interpolationmode none
attr recordingmode vector(packetBytes)
attr source packetDropReasonIsNoInterfaceFound(packetDropped)
attr title "packet drop: no interface found, packetBytes"
vector 205 HospitalNet.host[4].ipv4.ip packetDropNoRouteFound:vector(packetBytes) ETV
attr interpolationmode none
attr recordingmode vector(packetBytes)
attr source packetDropReasonIsNoRouteFound(packetDropped)
attr title "packet drop: no route found, packetBytes"
vector 206 HospitalNet.host[4].ipv4.ip packetDropUndefined:vector(packetBytes) ETV
attr interpolationmode none
attr recordingmode vector(packetBytes)
attr source packetDropReasonIsUndefined(packetDropped)
attr title "packet drop: undefined, packetBytes"
vector 207 HospitalNet.host[4].udp packetSent:vector(packetBytes) ETV
attr interpolationmode none
attr recordingmode vector(packetBytes)
attr source packetSent
attr title "packets sent, packetBytes"
vector 208 HospitalNet.host[4].udp packetReceived:vector(packetBytes) ETV
attr interpolationmode none
attr recordingmode vector(packetBytes)
attr source packetReceived
attr title "packets received, packetBytes"
vector 209 HospitalNet.host[4].udp passedUpPk:vector(count) ETV
attr interpolationmode none
attr recordingmode vector(count)
attr source packetSentToUpper
attr title "packets passed up, count"
vector 210 HospitalNet.host[4].udp droppedPkWrongPort:vector(count) ETV
attr interpolationmode none
attr recordingmode vector(count)
attr source packetDropReasonIsNoPortFound(packetDropped)
attr title "packets dropped (wrong port), count"
vector 211 HospitalNet.host[4].udp droppedPkBadChecksum:vector(count) ETV
attr interpolationmode none
attr recordingmode vector(count)
attr source packetDropReasonIsIncorrectlyReceived(packetDropped)
attr title "packets dropped (checksum error), count"
vector 212 HospitalNet.host[4].app[0].sink droppedPacketLengths:vector ETV
attr interpolationmode none
attr recordingmode vector
attr source packetLength(packetDropped)
attr title "dropped packet lengths"
attr unit b
vector 213 HospitalNet.host[4].app[0].sink droppedDataRate:vector ETV
attr interpolationmode linear
attr recordingmode vector
attr source throughput(packetDropped)
attr title "dropped data rate"
attr unit bps
vector 214 HospitalNet.host[4].app[0].sink packetLengths:vector ETV
attr interpolationmode none
attr recordingmode vector
attr source packetLength(packetPushed)
attr title "packet lengths"
attr unit b
vector 215 HospitalNet.host[4].app[0].sink dataRate:vector ETV
attr interpolationmode linear
attr recordingmode vector
attr source throughput(packetPushed)
attr title "data rate"
attr unit bps
vector 216 HospitalNet.host[4].app[0].sink meanBitLifeTimePerPacket:vector ETV
attr interpolationmode none
attr recordingmode vector
attr source weightedMeanPerGroup(groupRegionsPerPacket(lifeTimePerRegion(packetPushed)))
attr title "mean bit life time per packet"
attr unit s
vector 217 HospitalNet.host[4].app[0].sink packetJitter:vector ETV
attr interpolationmode none
attr recordingmode vector
attr source jitter(weightedMeanPerGroup(groupRegionsPerPacket(lifeTimePerRegion(packetPushed))))
attr title "packet jitter"
attr unit s
vector 218 HospitalNet.host[4].app[0].sink packetDelayDifferenceToMean:vector ETV
attr interpolationmode none
attr recordingmode vector
attr source differenceToMean(weightedMeanPerGroup(groupRegionsPerPacket(lifeTimePerRegion(packetPushed))))
attr title "packet delay difference to mean"
attr unit s
vector 219 HospitalNet.host[4].app[0].sink packetDelayVariation:vector ETV
attr recordingmode vector
attr source stddev(weightedMeanPerGroup(groupRegionsPerPacket(lifeTimePerRegion(packetPushed))))
attr title "packet delay variation"
attr unit s
vector 220 HospitalNet.host[5].lo[0].lo rcvdPkFromHl:vector(packetBytes) ETV
attr interpolationmode none
attr recordingmode vector(packetBytes)
attr source packetReceivedFromUpper
attr title "packets received from higher layer, packetBytes"
vector 221 HospitalNet.host[5].lo[0].lo passedUpPk:vector(packetBytes) ETV
attr interpolationmode none
attr recordingmode vector(packetBytes)
attr source packetSentToUpper
attr title "packets passed to higher layer, packetBytes"
vector 222 HospitalNet.host[5].lo[0] packetDropInterfaceDown:vector(packetBytes) ETV
attr interpolationmode none
attr recordingmode vector(packetBytes)
attr source packetDropReasonIsInterfaceDown(packetDropped)
attr title "packet drops: interface down, packetBytes"
vector 223 HospitalNet.host[5].lo[0] packetDropNoCarrier:vector(packetBytes) ETV
attr interpolationmode none
attr recordingmode vector(packetBytes)
attr source packetDropReasonIsNoCarrier(packetDropped)
attr title "packet drops: no carrier, packetBytes"
vector 224 HospitalNet.host[5].wlan[0].queue queueLength:vector ETV
attr autoWarmupFilter false
attr interpolationmode sample-hold
attr recordingmode vector
attr source "warmup(atomic(constant0(packetPushEnded) + count(packetPushStarted) - count(packetPulled) - count(packetRemoved) - count(packetDropped)))"
attr title "queue length"
attr unit pk
vector 225 HospitalNet.host[5].wlan[0].queue queueBitLength:vector ETV
attr autoWarmupFilter false
attr interpolationmode sample-hold
attr recordingmode vector
attr source "warmup(atomic(constant0(packetPushEnded) + sum(packetLength(packetPushStarted)) - sum(packetLength(packetPulled)) - sum(packetLength(packetRemoved)) - sum(packetLength(packetDropped))))"
attr title "queue bit length"
attr unit b
vector 226 HospitalNet.host[5].wlan[0].queue queueingTime:vector ETV
attr interpolationmode none
attr recordingmode vector
attr source queueingTime(packetPulled)
attr title "queueing times"
attr unit s
vector 227 HospitalNet.host[5].wlan[0].queue incomingPacketLengths:vector ETV
attr interpolationmode none
attr recordingmode vector
attr source packetLength(packetPushStarted)
attr title "incoming packet lengths"
attr unit b
vector 228 HospitalNet.host[5].wlan[0].queue incomingDataRate:vector ETV
attr interpolationmode linear
attr recordingmode vector
attr source throughput(packetPushStarted)
attr title "incoming datarate"
attr unit bps
vector 229 HospitalNet.host[5].wlan[0].queue outgoingPacketLengths:vector ETV
attr interpolationmode none
attr recordingmode vector
attr source packetLength(packetPulled)
attr title "outgoing packet lengths"
attr unit b
vector 230 HospitalNet.host[5].wlan[0].queue outgoingDataRate:vector ETV
attr interpolationmode linear
attr recordingmode vector
attr source throughput(packetPulled)
attr title "outgoing datarate"
attr unit bps
vector 231 HospitalNet.host[5].wlan[0].queue droppedPacketLengthsQueueOverflow:vector ETV
attr interpolationmode none
attr recordingmode vector
attr source packetLength(packetDropReasonIsQueueOverflow(packetDropped))
attr title "dropped packet lengths: queue overflow"
attr unit b
vector 232 HospitalNet.host[5].wlan[0].queue flowQueueingTime:vector ETV
attr interpolationmode none
attr recordingmode vector
attr source queueingTime(demuxFlow(packetPulled))
attr title "flow queueing times"
attr unit s
vector 233 HospitalNet.host[5].wlan[0].queue flowIncomingDataRate:vector ETV
attr interpolationmode linear
attr recordingmode vector
attr source throughput(flowPacketLength(demuxFlow(packetPushStarted)))
attr title "flow specific incoming data rate"
attr unit bps
vector 234 HospitalNet.host[5].wlan[0].queue flowOutgoingDataRate:vector ETV
attr interpolationmode linear
attr recordingmode vector
attr source throughput(flowPacketLength(demuxFlow(packetPulled)))
attr title "flow specific outgoing data rate"
attr unit bps
vector 235 HospitalNet.host[5].wlan[0].mac packetDropNotAddressToUs:vector(packetBytes) ETV
attr interpolationmode none
attr recordingmode vector(packetBytes)
attr source packetDropReasonIsNotAddressedToUs(packetDropped)
attr title "packet drop: not addressed to us, packetBytes"
vector 236 HospitalNet.host[5].wlan[0].mac packetDropIncorrectlyReceived:vector(packetBytes) ETV
attr interpolationmode none
attr recordingmode vector(packetBytes)
attr source packetDropReasonIsIncorrectlyReceived(packetDropped)
attr title "packet drop: incorrectly received, packetBytes"
vector 237 HospitalNet.host[5].wlan[0].mac packetDropQueueOverflow:vector(packetBytes) ETV
attr interpolationmode none
attr recordingmode vector(packetBytes)
attr source packetDropReasonIsQueueOverflow(packetDropped)
attr title "packet drop: queue overflow, packetBytes"
vector 238 HospitalNet.host[5].wlan[0].mac packetDropRetryLimitReached:vector(packetBytes) ETV
attr interpolationmode none
attr recordingmode vector(packetBytes)
attr source packetDropReasonIsRetryLimitReached(packetDropped)
attr title "packet drop: retry limit reached, packetBytes"
vector 239 HospitalNet.host[5].wlan[0].mac packetDropBackoffLimitReached:vector(packetBytes) ETV
attr interpolationmode none
attr recordingmode vector(packetBytes)
attr source packetDropReasonIsCongestion(packetDropped)
attr title "packet drop: backoff limit reached, packetBytes"
vector 240 HospitalNet.host[5].wlan[0].radio radioMode:vector ETV
attr interpolationmode sample-hold
attr recordingmode vector
attr source radioModeChanged
attr title "Radio mode"
vector 241 HospitalNet.host[5].wlan[0].radio receptionState:vector ETV
attr interpolationmode sample-hold
attr recordingmode vector
attr source receptionStateChanged
attr title "Radio reception state"
vector 242 HospitalNet.host[5].wlan[0].radio transmissionState:vector ETV
attr interpolationmode sample-hold
attr recordingmode vector
attr source transmissionStateChanged
attr title "Radio transmission state"
vector 243 HospitalNet.host[5].wlan[0] packetDropInterfaceDown:vector(packetBytes) ETV
attr interpolationmode none
attr recordingmode vector(packetBytes)
attr source packetDropReasonIsInterfaceDown(packetDropped)
attr title "packet drops: interface down, packetBytes"
vector 244 HospitalNet.host[5].wlan[0] packetDropNoCarrier:vector(packetBytes) ETV
attr interpolationmode none
attr recordingmode vector(packetBytes)
attr source packetDropReasonIsNoCarrier(packetDropped)
attr title "packet drops: no carrier, packetBytes"
vector 245 HospitalNet.host[5].ipv4.ip packetDropAddressResolutionFailed:vector(packetBytes) ETV
attr interpolationmode none
attr recordingmode vector(packetBytes)
attr source packetDropReasonIsAddressResolutionFailed(packetDropped)
attr title "packet drop: address resolution failed, packetBytes"
vector 246 HospitalNet.host[5].ipv4.ip packetDropHopLimitReached:vector(packetBytes) ETV
attr interpolationmode none
attr recordingmode vector(packetBytes)
attr source packetDropReasonIsHopLimitReached(packetDropped)
attr title "packet drop: hop limit reached, packetBytes"
vector 247 HospitalNet.host[5].ipv4.ip packetDropForwardingDisabled:vector(packetBytes) ETV
attr interpolationmode none
attr recordingmode vector(packetBytes)
attr source packetDropReasonIsForwardingDisabled(packetDropped)
attr title "packet drop: forwarding disabled, packetBytes"
vector 248 HospitalNet.host[5].ipv4.ip packetDropNoInterfaceFound:vector(packetBytes) ETV
attr interpolationmode none
attr recordingmode vector(packetBytes)
attr source packetDropReasonIsNoInterfaceFound(packetDropped)
attr title "packet drop: no interface found, packetBytes"
vector 249 HospitalNet.host[5].ipv4.ip packetDropNoRouteFound:vector(packetBytes) ETV
attr interpolationmode none
attr recordingmode vector(packetBytes)
attr source packetDropReasonIsNoRouteFound(packetDropped)
attr title "packet drop: no route found, packetBytes"
vector 250 HospitalNet.host[5].ipv4.ip packetDropUndefined:vector(packetBytes) ETV
attr interpolationmode none
attr recordingmode vector(packetBytes)
attr source packetDropReasonIsUndefined(packetDropped)
attr title "packet drop: undefined, packetBytes"
vector 251 HospitalNet.host[5].udp packetSent:vector(packetBytes) ETV
attr interpolationmode none
attr recordingmode vector(packetBytes)
attr source packetSent
attr title "packets sent, packetBytes"
vector 252 HospitalNet.host[5].udp packetReceived:vector(packetBytes) ETV
attr interpolationmode none
attr recordingmode vector(packetBytes)
attr source packetReceived
attr title "packets received, packetBytes"
vector 253 HospitalNet.host[5].udp passedUpPk:vector(count) ETV
attr interpolationmode none
attr recordingmode vector(count)
attr source packetSentToUpper
attr title "packets passed up, count"
vector 254 HospitalNet.host[5].udp droppedPkWrongPort:vector(count) ETV
attr interpolationmode none
attr recordingmode vector(count)
attr source packetDropReasonIsNoPortFound(packetDropped)
attr title "packets dropped (wrong port), count"
vector 255 HospitalNet.host[5].udp droppedPkBadChecksum:vector(count) ETV
attr interpolationmode none
attr recordingmode vector(count)
attr source packetDropReasonIsIncorrectlyReceived(packetDropped)
attr title "packets dropped (checksum error), count"
vector 256 HospitalNet.host[5].app[0].sink droppedPacketLengths:vector ETV
attr interpolationmode none
attr recordingmode vector
attr source packetLength(packetDropped)
attr title "dropped packet lengths"
attr unit b
vector 257 HospitalNet.host[5].app[0].sink droppedDataRate:vector ETV
attr interpolationmode linear
attr recordingmode vector
attr source throughput(packetDropped)
attr title "dropped data rate"
attr unit bps
vector 258 HospitalNet.host[5].app[0].sink packetLengths:vector ETV
attr interpolationmode none
attr recordingmode vector
attr source packetLength(packetPushed)
attr title "packet lengths"
attr unit b
vector 259 HospitalNet.host[5].app[0].sink dataRate:vector ETV
attr interpolationmode linear
attr recordingmode vector
attr source throughput(packetPushed)
attr title "data rate"
attr unit bps
vector 260 HospitalNet.host[5].app[0].sink meanBitLifeTimePerPacket:vector ETV
attr interpolationmode none
attr recordingmode vector
attr source weightedMeanPerGroup(groupRegionsPerPacket(lifeTimePerRegion(packetPushed)))
attr title "mean bit life time per packet"
attr unit s
vector 261 HospitalNet.host[5].app[0].sink packetJitter:vector ETV
attr interpolationmode none
attr recordingmode vector
attr source jitter(weightedMeanPerGroup(groupRegionsPerPacket(lifeTimePerRegion(packetPushed))))
attr title "packet jitter"
attr unit s
vector 262 HospitalNet.host[5].app[0].sink packetDelayDifferenceToMean:vector ETV
attr interpolationmode none
attr recordingmode vector
attr source differenceToMean(weightedMeanPerGroup(groupRegionsPerPacket(lifeTimePerRegion(packetPushed))))
attr title "packet delay difference to mean"
attr unit s
vector 263 HospitalNet.host[5].app[0].sink packetDelayVariation:vector ETV
attr recordingmode vector
attr source stddev(weightedMeanPerGroup(groupRegionsPerPacket(lifeTimePerRegion(packetPushed))))
attr title "packet delay variation"
attr unit s
vector 264 HospitalNet.host[6].lo[0].lo rcvdPkFromHl:vector(packetBytes) ETV
attr interpolationmode none
attr recordingmode vector(packetBytes)
attr source packetReceivedFromUpper
attr title "packets received from higher layer, packetBytes"
vector 265 HospitalNet.host[6].lo[0].lo passedUpPk:vector(packetBytes) ETV
attr interpolationmode none
attr recordingmode vector(packetBytes)
attr source packetSentToUpper
attr title "packets passed to higher layer, packetBytes"
vector 266 HospitalNet.host[6].lo[0] packetDropInterfaceDown:vector(packetBytes) ETV
attr interpolationmode none
attr recordingmode vector(packetBytes)
attr source packetDropReasonIsInterfaceDown(packetDropped)
attr title "packet drops: interface down, packetBytes"
vector 267 HospitalNet.host[6].lo[0] packetDropNoCarrier:vector(packetBytes) ETV
attr interpolationmode none
attr recordingmode vector(packetBytes)
attr source packetDropReasonIsNoCarrier(packetDropped)
attr title "packet drops: no carrier, packetBytes"
vector 268 HospitalNet.host[6].wlan[0].queue queueLength:vector ETV
attr autoWarmupFilter false
attr interpolationmode sample-hold
attr recordingmode vector
attr source "warmup(atomic(constant0(packetPushEnded) + count(packetPushStarted) - count(packetPulled) - count(packetRemoved) - count(packetDropped)))"
attr title "queue length"
attr unit pk
vector 269 HospitalNet.host[6].wlan[0].queue queueBitLength:vector ETV
attr autoWarmupFilter false
attr interpolationmode sample-hold
attr recordingmode vector
attr source "warmup(atomic(constant0(packetPushEnded) + sum(packetLength(packetPushStarted)) - sum(packetLength(packetPulled)) - sum(packetLength(packetRemoved)) - sum(packetLength(packetDropped))))"
attr title "queue bit length"
attr unit b
vector 270 HospitalNet.host[6].wlan[0].queue queueingTime:vector ETV
attr interpolationmode none
attr recordingmode vector
attr source queueingTime(packetPulled)
attr title "queueing times"
attr unit s
vector 271 HospitalNet.host[6].wlan[0].queue incomingPacketLengths:vector ETV
attr interpolationmode none
attr recordingmode vector
attr source packetLength(packetPushStarted)
attr title "incoming packet lengths"
attr unit b
vector 272 HospitalNet.host[6].wlan[0].queue incomingDataRate:vector ETV
attr interpolationmode linear
attr recordingmode vector
attr source throughput(packetPushStarted)
attr title "incoming datarate"
attr unit bps
vector 273 HospitalNet.host[6].wlan[0].queue outgoingPacketLengths:vector ETV
attr interpolationmode none
attr recordingmode vector
attr source packetLength(packetPulled)
attr title "outgoing packet lengths"
attr unit b
vector 274 HospitalNet.host[6].wlan[0].queue outgoingDataRate:vector ETV
attr interpolationmode linear
attr recordingmode vector
attr source throughput(packetPulled)
attr title "outgoing datarate"
attr unit bps
vector 275 HospitalNet.host[6].wlan[0].queue droppedPacketLengthsQueueOverflow:vector ETV
attr interpolationmode none
attr recordingmode vector
[...]
attr title "flow specific incoming data rate"
attr unit bps
vector 981 HospitalNet.monitor[15].wlan[0].queue flowOutgoingDataRate:vector ETV
attr interpolationmode linear
attr recordingmode vector
attr source throughput(flowPacketLength(demuxFlow(packetPulled)))
attr title "flow specific outgoing data rate"
attr unit bps
vector 982 HospitalNet.monitor[15].wlan[0].mac packetDropNotAddressToUs:vector(packetBytes) ETV
attr interpolationmode none
attr recordingmode vector(packetBytes)
attr source packetDropReasonIsNotAddressedToUs(packetDropped)
attr title "packet drop: not addressed to us, packetBytes"
vector 983 HospitalNet.monitor[15].wlan[0].mac packetDropIncorrectlyReceived:vector(packetBytes) ETV
attr interpolationmode none
attr recordingmode vector(packetBytes)
attr source packetDropReasonIsIncorrectlyReceived(packetDropped)
attr title "packet drop: incorrectly received, packetBytes"
vector 984 HospitalNet.monitor[15].wlan[0].mac packetDropQueueOverflow:vector(packetBytes) ETV
attr interpolationmode none
attr recordingmode vector(packetBytes)
attr source packetDropReasonIsQueueOverflow(packetDropped)
attr title "packet drop: queue overflow, packetBytes"
vector 985 HospitalNet.monitor[15].wlan[0].mac packetDropRetryLimitReached:vector(packetBytes) ETV
attr interpolationmode none
attr recordingmode vector(packetBytes)
attr source packetDropReasonIsRetryLimitReached(packetDropped)
attr title "packet drop: retry limit reached, packetBytes"
vector 986 HospitalNet.monitor[15].wlan[0].mac packetDropBackoffLimitReached:vector(packetBytes) ETV
attr interpolationmode none
attr recordingmode vector(packetBytes)
attr source packetDropReasonIsCongestion(packetDropped)
attr title "packet drop: backoff limit reached, packetBytes"
vector 987 HospitalNet.monitor[15].wlan[0].radio radioMode:vector ETV
attr interpolationmode sample-hold
attr recordingmode vector
attr source radioModeChanged
attr title "Radio mode"
vector 988 HospitalNet.monitor[15].wlan[0].radio receptionState:vector ETV
attr interpolationmode sample-hold
attr recordingmode vector
attr source receptionStateChanged
attr title "Radio reception state"
vector 989 HospitalNet.monitor[15].wlan[0].radio transmissionState:vector ETV
attr interpolationmode sample-hold
attr recordingmode vector
attr source transmissionStateChanged
attr title "Radio transmission state"
vector 990 HospitalNet.monitor[15].wlan[0] packetDropInterfaceDown:vector(packetBytes) ETV
attr interpolationmode none
attr recordingmode vector(packetBytes)
attr source packetDropReasonIsInterfaceDown(packetDropped)
attr title "packet drops: interface down, packetBytes"
vector 991 HospitalNet.monitor[15].wlan[0] packetDropNoCarrier:vector(packetBytes) ETV
attr interpolationmode none
attr recordingmode vector(packetBytes)
attr source packetDropReasonIsNoCarrier(packetDropped)
attr title "packet drops: no carrier, packetBytes"
vector 992 HospitalNet.monitor[15].ipv4.ip packetDropAddressResolutionFailed:vector(packetBytes) ETV
attr interpolationmode none
attr recordingmode vector(packetBytes)
attr source packetDropReasonIsAddressResolutionFailed(packetDropped)
attr title "packet drop: address resolution failed, packetBytes"
vector 993 HospitalNet.monitor[15].ipv4.ip packetDropHopLimitReached:vector(packetBytes) ETV
attr interpolationmode none
attr recordingmode vector(packetBytes)
attr source packetDropReasonIsHopLimitReached(packetDropped)
attr title "packet drop: hop limit reached, packetBytes"
vector 994 HospitalNet.monitor[15].ipv4.ip packetDropForwardingDisabled:vector(packetBytes) ETV
attr interpolationmode none
attr recordingmode vector(packetBytes)
attr source packetDropReasonIsForwardingDisabled(packetDropped)
attr title "packet drop: forwarding disabled, packetBytes"
vector 995 HospitalNet.monitor[15].ipv4.ip packetDropNoInterfaceFound:vector(packetBytes) ETV
attr interpolationmode none
attr recordingmode vector(packetBytes)
attr source packetDropReasonIsNoInterfaceFound(packetDropped)
attr title "packet drop: no interface found, packetBytes"
vector 996 HospitalNet.monitor[15].ipv4.ip packetDropNoRouteFound:vector(packetBytes) ETV
attr interpolationmode none
attr recordingmode vector(packetBytes)
attr source packetDropReasonIsNoRouteFound(packetDropped)
attr title "packet drop: no route found, packetBytes"
vector 997 HospitalNet.monitor[15].ipv4.ip packetDropUndefined:vector(packetBytes) ETV
attr interpolationmode none
attr recordingmode vector(packetBytes)
attr source packetDropReasonIsUndefined(packetDropped)
attr title "packet drop: undefined, packetBytes"
vector 998 HospitalNet.monitor[15].udp packetSent:vector(packetBytes) ETV
attr interpolationmode none
attr recordingmode vector(packetBytes)
attr source packetSent
attr title "packets sent, packetBytes"
vector 999 HospitalNet.monitor[15].udp packetReceived:vector(packetBytes) ETV
attr interpolationmode none
attr recordingmode vector(packetBytes)
attr source packetReceived
attr title "packets received, packetBytes"
vector 1000 HospitalNet.monitor[15].udp passedUpPk:vector(count) ETV
attr interpolationmode none
attr recordingmode vector(count)
attr source packetSentToUpper
attr title "packets passed up, count"
vector 1001 HospitalNet.monitor[15].udp droppedPkWrongPort:vector(count) ETV
attr interpolationmode none
attr recordingmode vector(count)
attr source packetDropReasonIsNoPortFound(packetDropped)
attr title "packets dropped (wrong port), count"
vector 1002 HospitalNet.monitor[15].udp droppedPkBadChecksum:vector(count) ETV
attr interpolationmode none
attr recordingmode vector(count)
attr source packetDropReasonIsIncorrectlyReceived(packetDropped)
attr title "packets dropped (checksum error), count"
vector 1003 HospitalNet.monitor[15].app[0] packetReceived:vector(packetBytes) ETV
attr interpolationmode none
attr recordingmode vector(packetBytes)
attr source packetReceived
attr title "packets received, packetBytes"
vector 1004 HospitalNet.monitor[15].app[0] throughput:vector ETV
attr recordingmode vector
attr source throughput(packetReceived)
attr title throughput
attr unit bps
vector 1005 HospitalNet.monitor[15].app[0] packetSent:vector(packetBytes) ETV
attr interpolationmode none
attr recordingmode vector(packetBytes)
attr source packetSent
attr title "packets sent, packetBytes"
vector 1006 HospitalNet.monitor[15].app[0] rcvdPkLifetime:vector ETV
attr interpolationmode none
attr recordingmode vector
attr source dataAge(packetReceived)
attr title "received packet lifetime"
attr unit s
vector 1007 HospitalNet.monitor[15].app[0] rcvdPkSeqNo:vector ETV
attr interpolationmode none
attr recordingmode vector
attr source appPkSeqNo(packetReceived)
attr title "received packet sequence number"
4	266450 45 0 0 0 0 5 0 0 0 0
5	266495 45 0 0 0 0 5 0 0 0 0
20	266540 30 0 0 0 0 3 0 2 2 4
21	266570 10 0 0 0 0 1 1 1 1 1
33	266580 10 0 0 0 0 1 0 0 0 0
34	266590 10 0 0 0 0 1 0 0 0 0
35	266600 10 0 0 0 0 1 0 0 0 0
48	266610 50 0 0 0 0 5 0 0 0 0
49	266660 50 0 0 0 0 5 0 0 0 0
64	266710 30 0 0 0 0 3 0 2 2 4
65	266740 10 0 0 0 0 1 1 1 1 1
77	266750 10 0 0 0 0 1 0 0 0 0
78	266760 10 0 0 0 0 1 0 0 0 0
79	266770 10 0 0 0 0 1 0 0 0 0
92	266780 50 0 0 0 0 5 0 0 0 0
93	266830 50 0 0 0 0 5 0 0 0 0
108	266880 33 0 0 0 0 3 0 2 2 4
109	266913 11 0 0 0 0 1 1 1 1 1
121	266924 11 0 0 0 0 1 0 0 0 0
122	266935 11 0 0 0 0 1 0 0 0 0
123	266946 11 0 0 0 0 1 0 0 0 0
136	266957 55 0 0 0 0 5 0 0 0 0
137	267012 55 0 0 0 0 5 0 0 0 0
152	267067 33 0 0 0 0 3 0 2 2 4
153	267100 11 0 0 0 0 1 1 1 1 1
165	267111 11 0 0 0 0 1 0 0 0 0
166	267122 11 0 0 0 0 1 0 0 0 0
167	267133 11 0 0 0 0 1 0 0 0 0
180	267144 55 0 0 0 0 5 0 0 0 0
181	267199 55 0 0 0 0 5 0 0 0 0
196	267254 33 0 0 0 0 3 0 2 2 4
197	267287 11 0 0 0 0 1 1 1 1 1
209	267298 11 0 0 0 0 1 0 0 0 0
210	267309 11 0 0 0 0 1 0 0 0 0
211	267320 11 0 0 0 0 1 0 0 0 0
224	267331 55 0 0 0 0 5 0 0 0 0
225	267386 55 0 0 0 0 5 0 0 0 0
240	267441 33 0 0 0 0 3 0 2 2 4
241	267474 11 0 0 0 0 1 1 1 1 1
253	267485 11 0 0 0 0 1 0 0 0 0
254	267496 11 0 0 0 0 1 0 0 0 0
255	267507 11 0 0 0 0 1 0 0 0 0
268	267518 55 0 0 0 0 5 0 0 0 0
269	267573 55 0 0 0 0 5 0 0 0 0
284	267628 33 0 0 0 0 3 0 2 2 4
285	267661 11 0 0 0 0 1 1 1 1 1
297	267672 11 0 0 0 0 1 0 0 0 0
298	267683 11 0 0 0 0 1 0 0 0 0
299	267694 11 0 0 0 0 1 0 0 0 0
312	267705 55 0 0 0 0 5 0 0 0 0
313	267760 55 0 0 0 0 5 0 0 0 0
328	267815 33 0 0 0 0 3 0 2 2 4
329	267848 11 0 0 0 0 1 1 1 1 1
341	267859 11 0 0 0 0 1 0 0 0 0
342	267870 11 0 0 0 0 1 0 0 0 0
343	267881 11 0 0 0 0 1 0 0 0 0
356	267892 55 0 0 0 0 5 0 0 0 0
357	267947 55 0 0 0 0 5 0 0 0 0
372	268002 33 0 0 0 0 3 0 2 2 4
373	268035 11 0 0 0 0 1 1 1 1 1
385	268046 11 0 0 0 0 1 0 0 0 0
386	268057 11 0 0 0 0 1 0 0 0 0
387	268068 11 0 0 0 0 1 0 0 0 0
397	268079 55 0 0 0 0 5 0 0 0 0
398	268134 55 0 0 0 0 5 0 0 0 0
413	268189 33 0 0 0 0 3 0 2 2 4
414	268222 11 0 0 0 0 1 1 1 1 1
426	268233 11 0 0 0 0 1 0 0 0 0
427	268244 11 0 0 0 0 1 0 0 0 0
428	268255 11 0 0 0 0 1 0 0 0 0
438	268266 167 0 3340 0 33.869353082234 9 0 2 4 6
439	268433 174 0 3340 0 33.869353082234 9 0 1184 2368 2328576
440	268607 70 3134 3340 33.845545082234 33.869353082234 2 0.001728 0.025536 0.027264 0.00065507328
441	268677 60 3131 3132 33.843817082234 33.843817082234 2 256 928 1184 926720
442	268737 5581 3131 3131 0.1 33.8 338 0 0 0 0
443	274318 60 3134 3340 33.845545082234 33.869353082234 2 256 928 1184 926720
444	274378 5581 3134 3134 0.1 33.8 338 0 0 0 0
452	279959 30 3338 3338 33.868905082234 33.868905082234 1 125 125 125 15625
454	279989 453 0 3495 0 33.879385082234 18 0 3 40 104
455	280442 431 0 3495 0 33.879385082234 16 0 1 8 8
456	280873 840 3134 3496 33.845545082234 33.879577082234 30 0 2 31 47
465	281713 30 3129 3129 33.843817082234 33.843817082234 1 108 108 108 11664
467	281743 11 0 0 0 0 1 0 0 0 0
468	281754 11 0 0 0 0 1 0 0 0 0
469	281765 11 0 0 0 0 1 0 0 0 0
472	281776 30 3127 3127 33.843817082234 33.843817082234 1 100 100 100 10000
479	281806 167 0 2654 0 30.594265757255 9 0 2 4 6
480	281973 174 0 2654 0 30.594265757255 9 0 1184 2368 2328576
481	282147 70 2448 2654 30.568537757255 30.594265757255 2 0.001408 0.027136 0.028544 0.00073834496
482	282217 60 2445 2446 30.567129757255 30.567129757255 2 256 928 1184 926720
483	282277 5026 2445 2445 0.1 30.5 305 0 0 0 0
484	287303 60 2448 2654 30.568537757255 30.594265757255 2 256 928 1184 926720
485	287363 5026 2448 2448 0.1 30.5 305 0 0 0 0
493	292389 59 2652 2867 30.592857757255 30.607513757255 2 41 125 166 17306
495	292448 481 0 2843 0 30.606953757255 19 0 3 42 108
496	292929 459 0 2843 0 30.606953757255 17 0 1 9 9
497	293388 896 2448 2843 30.568537757255 30.606953757255 32 0 2 32 48
506	294284 30 2443 2443 30.567129757255 30.567129757255 1 108 108 108 11664
508	294314 11 0 0 0 0 1 0 0 0 0
509	294325 11 0 0 0 0 1 0 0 0 0
510	294336 11 0 0 0 0 1 0 0 0 0
513	294347 30 2441 2441 30.567129757255 30.567129757255 1 100 100 100 10000
520	294377 55 0 0 0 0 5 0 0 0 0
521	294432 55 0 0 0 0 5 0 0 0 0
536	294487 33 0 0 0 0 3 0 2 2 4
537	294520 11 0 0 0 0 1 1 1 1 1
549	294531 11 0 0 0 0 1 0 0 0 0
550	294542 11 0 0 0 0 1 0 0 0 0
551	294553 11 0 0 0 0 1 0 0 0 0
561	294564 55 0 0 0 0 5 0 0 0 0
562	294619 55 0 0 0 0 5 0 0 0 0
577	294674 33 0 0 0 0 3 0 2 2 4
578	294707 11 0 0 0 0 1 1 1 1 1
590	294718 11 0 0 0 0 1 0 0 0 0
591	294729 11 0 0 0 0 1 0 0 0 0
592	294740 11 0 0 0 0 1 0 0 0 0
602	294751 55 0 0 0 0 5 0 0 0 0
603	294806 55 0 0 0 0 5 0 0 0 0
618	294861 33 0 0 0 0 3 0 2 2 4
619	294894 11 0 0 0 0 1 1 1 1 1
631	294905 11 0 0 0 0 1 0 0 0 0
632	294916 11 0 0 0 0 1 0 0 0 0
633	294927 11 0 0 0 0 1 0 0 0 0
643	294938 55 0 0 0 0 5 0 0 0 0
644	294993 55 0 0 0 0 5 0 0 0 0
659	295048 33 0 0 0 0 3 0 2 2 4
660	295081 11 0 0 0 0 1 1 1 1 1
672	295092 11 0 0 0 0 1 0 0 0 0
673	295103 11 0 0 0 0 1 0 0 0 0
674	295114 11 0 0 0 0 1 0 0 0 0
684	295125 55 0 0 0 0 5 0 0 0 0
685	295180 55 0 0 0 0 5 0 0 0 0
700	295235 33 0 0 0 0 3 0 2 2 4
701	295268 11 0 0 0 0 1 1 1 1 1
713	295279 11 0 0 0 0 1 0 0 0 0
714	295290 11 0 0 0 0 1 0 0 0 0
715	295301 11 0 0 0 0 1 0 0 0 0
725	295312 55 0 0 0 0 5 0 0 0 0
726	295367 55 0 0 0 0 5 0 0 0 0
741	295422 33 0 0 0 0 3 0 2 2 4
742	295455 11 0 0 0 0 1 1 1 1 1
754	295466 11 0 0 0 0 1 0 0 0 0
755	295477 11 0 0 0 0 1 0 0 0 0
756	295488 11 0 0 0 0 1 0 0 0 0
766	295499 55 0 0 0 0 5 0 0 0 0
767	295554 55 0 0 0 0 5 0 0 0 0
782	295609 33 0 0 0 0 3 0 2 2 4
783	295642 11 0 0 0 0 1 1 1 1 1
795	295653 11 0 0 0 0 1 0 0 0 0
796	295664 11 0 0 0 0 1 0 0 0 0
797	295675 11 0 0 0 0 1 0 0 0 0
807	295686 55 0 0 0 0 5 0 0 0 0
808	295741 55 0 0 0 0 5 0 0 0 0
823	295796 33 0 0 0 0 3 0 2 2 4
824	295829 11 0 0 0 0 1 1 1 1 1
836	295840 11 0 0 0 0 1 0 0 0 0
837	295851 11 0 0 0 0 1 0 0 0 0
838	295862 11 0 0 0 0 1 0 0 0 0
848	295873 55 0 0 0 0 5 0 0 0 0
849	295928 55 0 0 0 0 5 0 0 0 0
864	295983 33 0 0 0 0 3 0 2 2 4
865	296016 11 0 0 0 0 1 1 1 1 1
877	296027 11 0 0 0 0 1 0 0 0 0
878	296038 11 0 0 0 0 1 0 0 0 0
879	296049 11 0 0 0 0 1 0 0 0 0
889	296060 55 0 0 0 0 5 0 0 0 0
890	296115 55 0 0 0 0 5 0 0 0 0
905	296170 33 0 0 0 0 3 0 2 2 4
906	296203 11 0 0 0 0 1 1 1 1 1
918	296214 11 0 0 0 0 1 0 0 0 0
919	296225 11 0 0 0 0 1 0 0 0 0
920	296236 11 0 0 0 0 1 0 0 0 0
930	296247 55 0 0 0 0 5 0 0 0 0
931	296302 55 0 0 0 0 5 0 0 0 0
946	296357 33 0 0 0 0 3 0 2 2 4
947	296390 11 0 0 0 0 1 1 1 1 1
959	296401 11 0 0 0 0 1 0 0 0 0
960	296412 11 0 0 0 0 1 0 0 0 0
961	296423 11 0 0 0 0 1 0 0 0 0
971	296434 55 0 0 0 0 5 0 0 0 0
972	296489 55 0 0 0 0 5 0 0 0 0
987	296544 33 0 0 0 0 3 0 2 2 4
988	296577 11 0 0 0 0 1 1 1 1 1
1000	296588 12 0 0 0 0 1 0 0 0 0
1001	296600 12 0 0 0 0 1 0 0 0 0
1002	296612 12 0 0 0 0 1 0 0 0 0
452	296624 29 3545 3545 33.881641082234 33.881641082234 1 41 41 41 1681
454	296653 28 3521 3521 33.881081082234 33.881081082234 1 2 2 2 4
455	296681 28 3521 3521 33.881081082234 33.881081082234 1 1 1 1 1
456	296709 56 3521 3521 33.881081082234 33.881081082234 2 0 1 1 1
930	296765 112 3625 3834 34.736004227307 34.762500227307 4 0 2 4 6
931	296877 119 3625 3834 34.736004227307 34.762500227307 4 0 1184 2368 2328576
932	296996 70 3628 3834 34.738372227307 34.762500227307 2 0.002368 0.026496 0.028864 0.00070764544
933	297066 60 3625 3626 34.736004227307 34.736004227307 2 256 928 1184 926720
934	297126 5732 3625 3625 0.1 34.7 347 0 0 0 0
935	302858 60 3628 3834 34.738372227307 34.762500227307 2 256 928 1184 926720
936	302918 5732 3628 3628 0.1 34.7 347 0 0 0 0
944	308650 30 3832 3832 34.762052227307 34.762052227307 1 125 125 125 15625
946	308680 336 3628 3911 34.738372227307 34.767220227307 12 2 3 30 78
947	309016 336 3628 3911 34.738372227307 34.767220227307 12 0 1 6 6
948	309352 672 3628 3911 34.738372227307 34.767220227307 24 0 2 24 36
957	310024 30 3623 3623 34.736004227307 34.736004227307 1 108 108 108 11664
964	310054 30 3621 3621 34.736004227307 34.736004227307 1 100 100 100 10000
8	310084 5064 3935 3935 0.1 34.767780227307 348 0 0 0 0
10	315148 5412 3935 3935 0.1 34.767780227307 348 0 0 0 0
37	320560 5412 3935 3935 0.1 34.767780227307 348 0 0 0 0
39	325972 5412 3935 3935 0.1 34.767780227307 348 0 0 0 0
52	331384 5412 3935 3935 0.1 34.767780227307 348 0 0 0 0
54	336796 5412 3935 3935 0.1 34.767780227307 348 0 0 0 0
81	342208 5412 3935 3935 0.1 34.767780227307 348 0 0 0 0
83	347620 5412 3935 3935 0.1 34.767780227307 348 0 0 0 0
96	353032 5412 3935 3935 0.1 34.767780227307 348 0 0 0 0
98	358444 5412 3935 3935 0.1 34.767780227307 348 0 0 0 0
125	363856 5760 3935 3935 0.1 34.767780227307 348 0 0 0 0
127	369616 5760 3935 3935 0.1 34.767780227307 348 0 0 0 0
140	375376 5760 3935 3935 0.1 34.767780227307 348 0 0 0 0
142	381136 5760 3935 3935 0.1 34.767780227307 348 0 0 0 0
169	386896 5760 3935 3935 0.1 34.767780227307 348 0 0 0 0
171	392656 5760 3935 3935 0.1 34.767780227307 348 0 0 0 0
184	398416 5760 3935 3935 0.1 34.767780227307 348 0 0 0 0
186	404176 5760 3935 3935 0.1 34.767780227307 348 0 0 0 0
213	409936 5760 3935 3935 0.1 34.767780227307 348 0 0 0 0
215	415696 5760 3935 3935 0.1 34.767780227307 348 0 0 0 0
228	421456 5760 3935 3935 0.1 34.767780227307 348 0 0 0 0
230	427216 5760 3935 3935 0.1 34.767780227307 348 0 0 0 0
257	432976 5760 3935 3935 0.1 34.767780227307 348 0 0 0 0
259	438736 5760 3935 3935 0.1 34.767780227307 348 0 0 0 0
272	444496 5760 3935 3935 0.1 34.767780227307 348 0 0 0 0
274	450256 5760 3935 3935 0.1 34.767780227307 348 0 0 0 0
301	456016 5760 3935 3935 0.1 34.767780227307 348 0 0 0 0
303	461776 5760 3935 3935 0.1 34.767780227307 348 0 0 0 0
316	467536 5760 3935 3935 0.1 34.767780227307 348 0 0 0 0
318	473296 5760 3935 3935 0.1 34.767780227307 348 0 0 0 0
345	479056 5760 3935 3935 0.1 34.767780227307 348 0 0 0 0
347	484816 5760 3935 3935 0.1 34.767780227307 348 0 0 0 0
360	490576 5760 3935 3935 0.1 34.767780227307 348 0 0 0 0
362	496336 5760 3935 3935 0.1 34.767780227307 348 0 0 0 0
389	502096 5760 3935 3935 0.1 34.767780227307 348 0 0 0 0
401	507856 5760 3935 3935 0.1 34.767780227307 348 0 0 0 0
403	513616 5760 3935 3935 0.1 34.767780227307 348 0 0 0 0
430	519376 5760 3935 3935 0.1 34.767780227307 348 0 0 0 0
442	525136 183 3935 3935 33.9 34.767780227307 10 0 11840 11840 140185600
444	525319 183 3935 3935 33.9 34.767780227307 10 0 11840 11840 140185600
471	525502 5760 3935 3935 0.1 34.767780227307 348 0 0 0 0
483	531262 738 3935 3935 30.6 34.767780227307 43 0 11840 11840 140185600
485	532000 738 3935 3935 30.6 34.767780227307 43 0 11840 11840 140185600
512	532738 5760 3935 3935 0.1 34.767780227307 348 0 0 0 0
524	538498 5760 3935 3935 0.1 34.767780227307 348 0 0 0 0
526	544258 5760 3935 3935 0.1 34.767780227307 348 0 0 0 0
553	550018 5760 3935 3935 0.1 34.767780227307 348 0 0 0 0
565	555778 5760 3935 3935 0.1 34.767780227307 348 0 0 0 0
567	561538 5760 3935 3935 0.1 34.767780227307 348 0 0 0 0
594	567298 5760 3935 3935 0.1 34.767780227307 348 0 0 0 0
606	573058 5760 3935 3935 0.1 34.767780227307 348 0 0 0 0
608	578818 5760 3935 3935 0.1 34.767780227307 348 0 0 0 0
635	584578 5760 3935 3935 0.1 34.767780227307 348 0 0 0 0
647	590338 5760 3935 3935 0.1 34.767780227307 348 0 0 0 0
649	596098 5760 3935 3935 0.1 34.767780227307 348 0 0 0 0
676	601858 5760 3935 3935 0.1 34.767780227307 348 0 0 0 0
688	607618 5760 3935 3935 0.1 34.767780227307 348 0 0 0 0
690	613378 5760 3935 3935 0.1 34.767780227307 348 0 0 0 0
717	619138 5760 3935 3935 0.1 34.767780227307 348 0 0 0 0
729	624898 5760 3935 3935 0.1 34.767780227307 348 0 0 0 0
731	630658 5760 3935 3935 0.1 34.767780227307 348 0 0 0 0
758	636418 5760 3935 3935 0.1 34.767780227307 348 0 0 0 0
770	642178 5760 3935 3935 0.1 34.767780227307 348 0 0 0 0
772	647938 5760 3935 3935 0.1 34.767780227307 348 0 0 0 0
799	653698 5760 3935 3935 0.1 34.767780227307 348 0 0 0 0
811	659458 5760 3935 3935 0.1 34.767780227307 348 0 0 0 0
813	665218 5760 3935 3935 0.1 34.767780227307 348 0 0 0 0
840	670978 5760 3935 3935 0.1 34.767780227307 348 0 0 0 0
852	676738 5760 3935 3935 0.1 34.767780227307 348 0 0 0 0
854	682498 5760 3935 3935 0.1 34.767780227307 348 0 0 0 0
881	688258 5760 3935 3935 0.1 34.767780227307 348 0 0 0 0
893	694018 5760 3935 3935 0.1 34.767780227307 348 0 0 0 0
895	699778 5760 3935 3935 0.1 34.767780227307 348 0 0 0 0
922	705538 5760 3935 3935 0.1 34.767780227307 348 0 0 0 0
934	711298 42 3935 3935 34.767780227307 34.767780227307 1 17468.221147109 17468.221147109 17468.221147109 305138750.04431
936	711340 42 3935 3935 34.767780227307 34.767780227307 1 17468.221147109 17468.221147109 17468.221147109 305138750.04431
963	711382 5760 3935 3935 0.1 34.767780227307 348 0 0 0 0
975	717142 5760 3935 3935 0.1 34.767780227307 348 0 0 0 0
977	722902 5760 3935 3935 0.1 34.767780227307 348 0 0 0 0
1004	728662 6108 3935 3935 0.1 34.767780227307 348 0 0 0 0

