version 3
run Outdoor-0-20260426-22:32:17-21712
attr configname Outdoor
attr datetime 20260426-22:32:17
attr datetimef 20260426-223217
attr experiment Outdoor
attr inifile omnetpp.ini
attr iterationvars ""
attr iterationvarsd ""
attr iterationvarsf ""
attr measurement ""
attr network HospitalNet
attr processid 21712
attr repetition 0
attr replication #0
attr resultdir results
attr runnumber 0
attr seedset 0
config image-path ../../inet4.5/images
config description "Wireless nodes send pings while moving around the streets"
config **.arp.typename GlobalArp
config *.numHosts 8
config *.numMonitors 16
config *.visualizer.canvasVisualizer.dataLinkVisualizer.displayLinks true
config *.visualizer.canvasVisualizer.dataLinkVisualizer.packetNameFilter "\"UdpBasicAppMsg*\""
config *.visualizer.canvasVisualizer.dataLinkVisualizer.packetFilter "\"UdpBasicAppMsg\""
config *.visualizer.canvasVisualizer.networkRouteVisualizer.packetFilter "\"UdpBasicAppMsg\""
config *.visualizer.canvasVisualizer.dataLinkVisualizer.nodeFilter "\"host* or monitor*\""
config *.visualizer.canvasVisualizer.dataLinkVisualizer.holdTime 0.1s
config *.visualizer.canvasVisualizer.mediumVisualizer.displaySignals false
config *.visualizer.canvasVisualizer.mediumVisualizer.displayTransmissions false
config *.visualizer.canvasVisualizer.sceneVisualizer.axisLength 500m
config *.visualizer.canvasVisualizer.sceneVisualizer.viewTranslation "\"25000 0\""
config *.configurator.addStaticArpEntries true
config *.configurator.optimizeRoutes false
config *.configurator.assignAddresses true
config *.configurator.assignDispatchedAddresses true
config *.configurator.addStaticRoutes true
config *.physicalEnvironment.config "xmldoc(\"outdoor.xml\")"
config *.host[*].wlan[*].radio.transmitter.power 5mW
config *.radioMedium.backgroundNoise.power -110dBm
config **.wlan[0].radio.displayInterferenceRange false
config **.wlan[0].radio.displayCommunicationRange true
config *.radioMedium.typename RadioMedium
config **.wlan[0].typename Ieee802154NarrowbandInterface
config **.wlan[0].mac.typename Ieee802154Mac
config **.wlan[0].radio.typename Ieee802154NarrowbandScalarRadio
config *.host[*].mobility.constraintAreaMinX 50m
config *.host[*].mobility.constraintAreaMaxX 850m
config *.host[*].mobility.constraintAreaMinZ 0m
config *.host[*].mobility.constraintAreaMaxZ 0m
config *.host[0].mobility.constraintAreaMinY 50m
config *.host[0].mobility.constraintAreaMaxY 140m
config *.host[4].mobility.constraintAreaMinY 50m
config *.host[4].mobility.constraintAreaMaxY 140m
config *.host[1].mobility.constraintAreaMinY 160m
config *.host[1].mobility.constraintAreaMaxY 240m
config *.host[5].mobility.constraintAreaMinY 160m
config *.host[5].mobility.constraintAreaMaxY 240m
config *.host[2].mobility.constraintAreaMinY 260m
config *.host[2].mobility.constraintAreaMaxY 340m
config *.host[6].mobility.constraintAreaMinY 260m
config *.host[6].mobility.constraintAreaMaxY 340m
config *.host[3].mobility.constraintAreaMinY 365m
config *.host[3].mobility.constraintAreaMaxY 435m
config *.host[7].mobility.constraintAreaMinY 365m
config *.host[7].mobility.constraintAreaMaxY 435m
config *.host[0].wlan[0].ipv4.address "\"10.0.0.1\""
config *.host[1].wlan[0].ipv4.address "\"10.0.0.2\""
config *.host[2].wlan[0].ipv4.address "\"10.0.0.3\""
config *.host[3].wlan[0].ipv4.address "\"10.0.0.4\""
config *.host[4].wlan[0].ipv4.address "\"10.0.0.5\""
config *.host[5].wlan[0].ipv4.address "\"10.0.0.6\""
config *.host[6].wlan[0].ipv4.address "\"10.0.0.7\""
config *.host[7].wlan[0].ipv4.address "\"10.0.0.8\""
config *.host[*].mobility.typename RectangleMobility
config *.host[*].mobility.speed "uniform(100mps, 170mps)"
config *.host[*].mobility.updateInterval 100ms
config *.host[*].mobility.startPos "uniform(0, 3)"
config *.monitor[*].mobility.typename StationaryMobility
config *.monitor[*].mobility.constraintAreaMinZ 0m
config *.monitor[*].mobility.constraintAreaMaxZ 30m
config *.monitor[0].mobility.constraintAreaMinX 149m
config *.monitor[0].mobility.constraintAreaMaxX 151m
config *.monitor[0].mobility.constraintAreaMinY 99m
config *.monitor[0].mobility.constraintAreaMaxY 101m
config *.monitor[1].mobility.constraintAreaMinX 349m
config *.monitor[1].mobility.constraintAreaMaxX 351m
config *.monitor[1].mobility.constraintAreaMinY 99m
config *.monitor[1].mobility.constraintAreaMaxY 101m
config *.monitor[2].mobility.constraintAreaMinX 549m
config *.monitor[2].mobility.constraintAreaMaxX 551m
config *.monitor[2].mobility.constraintAreaMinY 99m
config *.monitor[2].mobility.constraintAreaMaxY 101m
config *.monitor[3].mobility.constraintAreaMinX 749m
config *.monitor[3].mobility.constraintAreaMaxX 751m
config *.monitor[3].mobility.constraintAreaMinY 99m
config *.monitor[3].mobility.constraintAreaMaxY 101m
config *.monitor[4].mobility.constraintAreaMinX 149m
config *.monitor[4].mobility.constraintAreaMaxX 151m
config *.monitor[4].mobility.constraintAreaMinY 199m
config *.monitor[4].mobility.constraintAreaMaxY 201m
config *.monitor[5].mobility.constraintAreaMinX 349m
config *.monitor[5].mobility.constraintAreaMaxX 351m
config *.monitor[5].mobility.constraintAreaMinY 199m
config *.monitor[5].mobility.constraintAreaMaxY 201m
config *.monitor[6].mobility.constraintAreaMinX 549m
config *.monitor[6].mobility.constraintAreaMaxX 551m
config *.monitor[6].mobility.constraintAreaMinY 199m
config *.monitor[6].mobility.constraintAreaMaxY 201m
config *.monitor[7].mobility.constraintAreaMinX 749m
config *.monitor[7].mobility.constraintAreaMaxX 751m
config *.monitor[7].mobility.constraintAreaMinY 199m
config *.monitor[7].mobility.constraintAreaMaxY 201m
config *.monitor[8..11].mobility.constraintAreaMinY 299m
config *.monitor[8..11].mobility.constraintAreaMaxY 301m
config *.monitor[8].mobility.constraintAreaMinX 149m
config *.monitor[8].mobility.constraintAreaMaxX 151m
config *.monitor[9].mobility.constraintAreaMinX 349m
config *.monitor[9].mobility.constraintAreaMaxX 351m
config *.monitor[10].mobility.constraintAreaMinX 549m
config *.monitor[10].mobility.constraintAreaMaxX 551m
config *.monitor[11].mobility.constraintAreaMinX 749m
config *.monitor[11].mobility.constraintAreaMaxX 751m
config *.monitor[12..15].mobility.constraintAreaMinY 399m
config *.monitor[12..15].mobility.constraintAreaMaxY 401m
config *.monitor[12].mobility.constraintAreaMinX 149m
config *.monitor[12].mobility.constraintAreaMaxX 151m
config *.monitor[13].mobility.constraintAreaMinX 350m
config *.monitor[13].mobility.constraintAreaMaxX 351m
config *.monitor[14].mobility.constraintAreaMinX 549m
config *.monitor[14].mobility.constraintAreaMaxX 551m
config *.monitor[15].mobility.constraintAreaMinX 749m
config *.monitor[15].mobility.constraintAreaMaxX 751m
config **.wlan[*].mac.useAck false
config **.udp.checkAddress false
config **.udp.checksumControl false
config *.monitor[*].numApps 1
config **.monitor[*].wlan[0].radio.receiver.ignoreInterference true
config *.monitor[*].wlan[0].mgmt.typename Ieee80211MgmtAdhoc
config **.monitor[*].wlan[0].radio.transmitter.headerLength 0B
config **.ipv4.ip.fragmentation false
config *.monitor[*].app[0].typename UdpBasicApp
config *.monitor[*].app[0].localPort -1
config *.monitor[*].app[0].destAddresses "\"10.0.0.1 10.0.0.2 10.0.0.3 10.0.0.4 10.0.0.5 10.0.0.6 10.0.0.7 10.0.0.8 \""
config *.monitor[*].app[0].destPort 1000
config *.monitor[*].app[0].messageLength 100B
config *.monitor[*].app[0].sendInterval 30s
config *.monitor[*].app[0].numPacketsPerBurst 1
config *.monitor[*].app[0].source.numPacketsPerBurst 1
config *.monitor[*].app[0].count 1
config *.monitor[*].app[0].startTime "uniform(30s, 40s)"
config *.host[*].numApps 1
config *.host[*].app[0].typename SinkApp
config *.host[*].app[0].localPort 1000
config network HospitalNet
config *.configurator.addStaticArpEntries true
config *.configurator.optimizeRoutes false
config *.configurator.assignAddresses true
config **.vector-recording true
config **.scalar-recording true
config **.bin-recording true
config **.app[*].rcvdPkFromHL:vector.vector-recording true
config **.app[*].sentPk:vector.vector-recording true
config num-rngs 3
config *.host[*].mobility.rng-0 1
config *.host[*].wlan[*].mac.rng-0 2
config *.visualizer.*.mediumVisualizer.displaySignals false
config *.visualizer.*.mediumVisualizer.displaySignalDepartures false
config *.visualizer.*.mediumVisualizer.displaySignalArrivals false
config *.visualizer.canvasVisualizer.dataLinkVisualizer.displayLinks true
config *.visualizer.canvasVisualizer.dataLinkVisualizer.packetNameFilter "\"UdpBasicAppMsg\""
config *.visualizer.canvasVisualizer.dataLinkVisualizer.nodeFilter "\"host* or monitor*\""
config *.physicalEnvironment.spaceMinX 0m
config *.physicalEnvironment.spaceMinY 0m
config *.physicalEnvironment.spaceMinZ -1000m
config *.physicalEnvironment.spaceMaxX 1000m
config *.physicalEnvironment.spaceMaxY 1000m
config *.physicalEnvironment.spaceMaxZ 1000m
config *.radioMedium.obstacleLoss.typename DielectricObstacleLoss
config *.radioMedium.typename RadioMedium
config *.radioMedium.backgroundNoise.power -110dBm
config **.wlan[0].radio.displayInterferenceRange false
config **.wlan[0].radio.displayCommunicationRange true
config **.wlan[0].typename Ieee802154NarrowbandInterface
config **.wlan[0].mac.typename Ieee802154Mac
config **.wlan[0].radio.typename Ieee802154NarrowbandScalarRadio

vector 0 HospitalNet.host[0].lo[0].lo rcvdPkFromHl:vector(packetBytes) ETV
attr interpolationmode none
attr recordingmode vector(packetBytes)
attr source packetReceivedFromUpper
attr title "packets received from higher layer, packetBytes"
vector 1 HospitalNet.host[0].lo[0].lo passedUpPk:vector(packetBytes) ETV
attr interpolationmode none
attr recordingmode vector(packetBytes)
attr source packetSentToUpper
attr title "packets passed to higher layer, packetBytes"
vector 2 HospitalNet.host[0].lo[0] packetDropInterfaceDown:vector(packetBytes) ETV
attr interpolationmode none
attr recordingmode vector(packetBytes)
attr source packetDropReasonIsInterfaceDown(packetDropped)
attr title "packet drops: interface down, packetBytes"
vector 3 HospitalNet.host[0].lo[0] packetDropNoCarrier:vector(packetBytes) ETV
attr interpolationmode none
attr recordingmode vector(packetBytes)
attr source packetDropReasonIsNoCarrier(packetDropped)
attr title "packet drops: no carrier, packetBytes"
vector 4 HospitalNet.host[0].wlan[0].queue queueLength:vector ETV
attr autoWarmupFilter false
attr interpolationmode sample-hold
attr recordingmode vector
attr source "warmup(atomic(constant0(packetPushEnded) + count(packetPushStarted) - count(packetPulled) - count(packetRemoved) - count(packetDropped)))"
attr title "queue length"
attr unit pk
vector 5 HospitalNet.host[0].wlan[0].queue queueBitLength:vector ETV
attr autoWarmupFilter false
attr interpolationmode sample-hold
attr recordingmode vector
attr source "warmup(atomic(constant0(packetPushEnded) + sum(packetLength(packetPushStarted)) - sum(packetLength(packetPulled)) - sum(packetLength(packetRemoved)) - sum(packetLength(packetDropped))))"
attr title "queue bit length"
attr unit b
vector 6 HospitalNet.host[0].wlan[0].queue queueingTime:vector ETV
attr interpolationmode none
attr recordingmode vector
attr source queueingTime(packetPulled)
attr title "queueing times"
attr unit s
vector 7 HospitalNet.host[0].wlan[0].queue incomingPacketLengths:vector ETV
attr interpolationmode none
attr recordingmode vector
attr source packetLength(packetPushStarted)
attr title "incoming packet lengths"
attr unit b
vector 8 HospitalNet.host[0].wlan[0].queue incomingDataRate:vector ETV
attr interpolationmode linear
attr recordingmode vector
attr source throughput(packetPushStarted)
attr title "incoming datarate"
attr unit bps
vector 9 HospitalNet.host[0].wlan[0].queue outgoingPacketLengths:vector ETV
attr interpolationmode none
attr recordingmode vector
attr source packetLength(packetPulled)
attr title "outgoing packet lengths"
attr unit b
vector 10 HospitalNet.host[0].wlan[0].queue outgoingDataRate:vector ETV
attr interpolationmode linear
attr recordingmode vector
attr source throughput(packetPulled)
attr title "outgoing datarate"
attr unit bps
vector 11 HospitalNet.host[0].wlan[0].queue droppedPacketLengthsQueueOverflow:vector ETV
attr interpolationmode none
attr recordingmode vector
attr source packetLength(packetDropReasonIsQueueOverflow(packetDropped))
attr title "dropped packet lengths: queue overflow"
attr unit b
vector 12 HospitalNet.host[0].wlan[0].queue flowQueueingTime:vector ETV
attr interpolationmode none
attr recordingmode vector
attr source queueingTime(demuxFlow(packetPulled))
attr title "flow queueing times"
attr unit s
vector 13 HospitalNet.host[0].wlan[0].queue flowIncomingDataRate:vector ETV
attr interpolationmode linear
attr recordingmode vector
attr source throughput(flowPacketLength(demuxFlow(packetPushStarted)))
attr title "flow specific incoming data rate"
attr unit bps
vector 14 HospitalNet.host[0].wlan[0].queue flowOutgoingDataRate:vector ETV
attr interpolationmode linear
attr recordingmode vector
attr source throughput(flowPacketLength(demuxFlow(packetPulled)))
attr title "flow specific outgoing data rate"
attr unit bps
vector 15 HospitalNet.host[0].wlan[0].mac packetDropNotAddressToUs:vector(packetBytes) ETV
attr interpolationmode none
attr recordingmode vector(packetBytes)
attr source packetDropReasonIsNotAddressedToUs(packetDropped)
attr title "packet drop: not addressed to us, packetBytes"
vector 16 HospitalNet.host[0].wlan[0].mac packetDropIncorrectlyReceived:vector(packetBytes) ETV
attr interpolationmode none
attr recordingmode vector(packetBytes)
attr source packetDropReasonIsIncorrectlyReceived(packetDropped)
attr title "packet drop: incorrectly received, packetBytes"
vector 17 HospitalNet.host[0].wlan[0].mac packetDropQueueOverflow:vector(packetBytes) ETV
attr interpolationmode none
attr recordingmode vector(packetBytes)
attr source packetDropReasonIsQueueOverflow(packetDropped)
attr title "packet drop: queue overflow, packetBytes"
vector 18 HospitalNet.host[0].wlan[0].mac packetDropRetryLimitReached:vector(packetBytes) ETV
attr interpolationmode none
attr recordingmode vector(packetBytes)
attr source packetDropReasonIsRetryLimitReached(packetDropped)
attr title "packet drop: retry limit reached, packetBytes"
vector 19 HospitalNet.host[0].wlan[0].mac packetDropBackoffLimitReached:vector(packetBytes) ETV
attr interpolationmode none
attr recordingmode vector(packetBytes)
attr source packetDropReasonIsCongestion(packetDropped)
attr title "packet drop: backoff limit reached, packetBytes"
vector 20 HospitalNet.host[0].wlan[0].radio radioMode:vector ETV
attr interpolationmode sample-hold
attr recordingmode vector
attr source radioModeChanged
attr title "Radio mode"
vector 21 HospitalNet.host[0].wlan[0].radio receptionState:vector ETV
attr interpolationmode sample-hold
attr recordingmode vector
attr source receptionStateChanged
attr title "Radio reception state"
vector 22 HospitalNet.host[0].wlan[0].radio transmissionState:vector ETV
attr interpolationmode sample-hold
attr recordingmode vector
attr source transmissionStateChanged
attr title "Radio transmission state"
vector 23 HospitalNet.host[0].wlan[0] packetDropInterfaceDown:vector(packetBytes) ETV
attr interpolationmode none
attr recordingmode vector(packetBytes)
attr source packetDropReasonIsInterfaceDown(packetDropped)
attr title "packet drops: interface down, packetBytes"
vector 24 HospitalNet.host[0].wlan[0] packetDropNoCarrier:vector(packetBytes) ETV
attr interpolationmode none
attr recordingmode vector(packetBytes)
attr source packetDropReasonIsNoCarrier(packetDropped)
attr title "packet drops: no carrier, packetBytes"
vector 25 HospitalNet.host[0].ipv4.ip packetDropAddressResolutionFailed:vector(packetBytes) ETV
attr interpolationmode none
attr recordingmode vector(packetBytes)
attr source packetDropReasonIsAddressResolutionFailed(packetDropped)
attr title "packet drop: address resolution failed, packetBytes"
vector 26 HospitalNet.host[0].ipv4.ip packetDropHopLimitReached:vector(packetBytes) ETV
attr interpolationmode none
attr recordingmode vector(packetBytes)
attr source packetDropReasonIsHopLimitReached(packetDropped)
attr title "packet drop: hop limit reached, packetBytes"
vector 27 HospitalNet.host[0].ipv4.ip packetDropForwardingDisabled:vector(packetBytes) ETV
attr interpolationmode none
attr recordingmode vector(packetBytes)
attr source packetDropReasonIsForwardingDisabled(packetDropped)
attr title "packet drop: forwarding disabled, packetBytes"
vector 28 HospitalNet.host[0].ipv4.ip packetDropNoInterfaceFound:vector(packetBytes) ETV
attr interpolationmode none
attr recordingmode vector(packetBytes)
attr source packetDropReasonIsNoInterfaceFound(packetDropped)
attr title "packet drop: no interface found, packetBytes"
vector 29 HospitalNet.host[0].ipv4.ip packetDropNoRouteFound:vector(packetBytes) ETV
attr interpolationmode none
attr recordingmode vector(packetBytes)
attr source packetDropReasonIsNoRouteFound(packetDropped)
attr title "packet drop: no route found, packetBytes"
vector 30 HospitalNet.host[0].ipv4.ip packetDropUndefined:vector(packetBytes) ETV
attr interpolationmode none
attr recordingmode vector(packetBytes)
attr source packetDropReasonIsUndefined(packetDropped)
attr title "packet drop: undefined, packetBytes"
vector 31 HospitalNet.host[0].udp packetSent:vector(packetBytes) ETV
attr interpolationmode none
attr recordingmode vector(packetBytes)
attr source packetSent
attr title "packets sent, packetBytes"
vector 32 HospitalNet.host[0].udp packetReceived:vector(packetBytes) ETV
attr interpolationmode none
attr recordingmode vector(packetBytes)
attr source packetReceived
attr title "packets received, packetBytes"
vector 33 HospitalNet.host[0].udp passedUpPk:vector(count) ETV
attr interpolationmode none
attr recordingmode vector(count)
attr source packetSentToUpper
attr title "packets passed up, count"
vector 34 HospitalNet.host[0].udp droppedPkWrongPort:vector(count) ETV
attr interpolationmode none
attr recordingmode vector(count)
attr source packetDropReasonIsNoPortFound(packetDropped)
attr title "packets dropped (wrong port), count"
vector 35 HospitalNet.host[0].udp droppedPkBadChecksum:vector(count) ETV
attr interpolationmode none
attr recordingmode vector(count)
attr source packetDropReasonIsIncorrectlyReceived(packetDropped)
attr title "packets dropped (checksum error), count"
vector 36 HospitalNet.host[0].app[0].sink droppedPacketLengths:vector ETV
attr interpolationmode none
attr recordingmode vector
attr source packetLength(packetDropped)
attr title "dropped packet lengths"
attr unit b
vector 37 HospitalNet.host[0].app[0].sink droppedDataRate:vector ETV
attr interpolationmode linear
attr recordingmode vector
attr source throughput(packetDropped)
attr title "dropped data rate"
attr unit bps
vector 38 HospitalNet.host[0].app[0].sink packetLengths:vector ETV
attr interpolationmode none
attr recordingmode vector
attr source packetLength(packetPushed)
attr title "packet lengths"
attr unit b
vector 39 HospitalNet.host[0].app[0].sink dataRate:vector ETV
attr interpolationmode linear
attr recordingmode vector
attr source throughput(packetPushed)
attr title "data rate"
attr unit bps
vector 40 HospitalNet.host[0].app[0].sink meanBitLifeTimePerPacket:vector ETV
attr interpolationmode none
attr recordingmode vector
attr source weightedMeanPerGroup(groupRegionsPerPacket(lifeTimePerRegion(packetPushed)))
attr title "mean bit life time per packet"
attr unit s
vector 41 HospitalNet.host[0].app[0].sink packetJitter:vector ETV
attr interpolationmode none
attr recordingmode vector
attr source jitter(weightedMeanPerGroup(groupRegionsPerPacket(lifeTimePerRegion(packetPushed))))
attr title "packet jitter"
attr unit s
vector 42 HospitalNet.host[0].app[0].sink packetDelayDifferenceToMean:vector ETV
attr interpolationmode none
attr recordingmode vector
attr source differenceToMean(weightedMeanPerGroup(groupRegionsPerPacket(lifeTimePerRegion(packetPushed))))
attr title "packet delay difference to mean"
attr unit s
vector 43 HospitalNet.host[0].app[0].sink packetDelayVariation:vector ETV
attr recordingmode vector
attr source stddev(weightedMeanPerGroup(groupRegionsPerPacket(lifeTimePerRegion(packetPushed))))
attr title "packet delay variation"
attr unit s
vector 44 HospitalNet.host[1].lo[0].lo rcvdPkFromHl:vector(packetBytes) ETV
attr interpolationmode none
attr recordingmode vector(packetBytes)
attr source packetReceivedFromUpper
attr title "packets received from higher layer, packetBytes"
vector 45 HospitalNet.host[1].lo[0].lo passedUpPk:vector(packetBytes) ETV
attr interpolationmode none
attr recordingmode vector(packetBytes)
attr source packetSentToUpper
attr title "packets passed to higher layer, packetBytes"
vector 46 HospitalNet.host[1].lo[0] packetDropInterfaceDown:vector(packetBytes) ETV
attr interpolationmode none
attr recordingmode vector(packetBytes)
attr source packetDropReasonIsInterfaceDown(packetDropped)
attr title "packet drops: interface down, packetBytes"
vector 47 HospitalNet.host[1].lo[0] packetDropNoCarrier:vector(packetBytes) ETV
attr interpolationmode none
attr recordingmode vector(packetBytes)
attr source packetDropReasonIsNoCarrier(packetDropped)
attr title "packet drops: no carrier, packetBytes"
vector 48 HospitalNet.host[1].wlan[0].queue queueLength:vector ETV
attr autoWarmupFilter false
attr interpolationmode sample-hold
attr recordingmode vector
attr source "warmup(atomic(constant0(packetPushEnded) + count(packetPushStarted) - count(packetPulled) - count(packetRemoved) - count(packetDropped)))"
attr title "queue length"
attr unit pk
vector 49 HospitalNet.host[1].wlan[0].queue queueBitLength:vector ETV
attr autoWarmupFilter false
attr interpolationmode sample-hold
attr recordingmode vector
attr source "warmup(atomic(constant0(packetPushEnded) + sum(packetLength(packetPushStarted)) - sum(packetLength(packetPulled)) - sum(packetLength(packetRemoved)) - sum(packetLength(packetDropped))))"
attr title "queue bit length"
attr unit b
vector 50 HospitalNet.host[1].wlan[0].queue queueingTime:vector ETV
attr interpolationmode none
attr recordingmode vector
attr source queueingTime(packetPulled)
attr title "queueing times"
attr unit s
vector 51 HospitalNet.host[1].wlan[0].queue incomingPacketLengths:vector ETV
attr interpolationmode none
attr recordingmode vector
attr source packetLength(packetPushStarted)
attr title "incoming packet lengths"
attr unit b
vector 52 HospitalNet.host[1].wlan[0].queue incomingDataRate:vector ETV
attr interpolationmode linear
attr recordingmode vector
attr source throughput(packetPushStarted)
attr title "incoming datarate"
attr unit bps
vector 53 HospitalNet.host[1].wlan[0].queue outgoingPacketLengths:vector ETV
attr interpolationmode none
attr recordingmode vector
attr source packetLength(packetPulled)
attr title "outgoing packet lengths"
attr unit b
vector 54 HospitalNet.host[1].wlan[0].queue outgoingDataRate:vector ETV
attr interpolationmode linear
attr recordingmode vector
attr source throughput(packetPulled)
attr title "outgoing datarate"
attr unit bps
vector 55 HospitalNet.host[1].wlan[0].queue droppedPacketLengthsQueueOverflow:vector ETV
attr interpolationmode none
attr recordingmode vector
attr source packetLength(packetDropReasonIsQueueOverflow(packetDropped))
attr title "dropped packet lengths: queue overflow"
attr unit b
vector 56 HospitalNet.host[1].wlan[0].queue flowQueueingTime:vector ETV
attr interpolationmode none
attr recordingmode vector
attr source queueingTime(demuxFlow(packetPulled))
attr title "flow queueing times"
attr unit s
vector 57 HospitalNet.host[1].wlan[0].queue flowIncomingDataRate:vector ETV
attr interpolationmode linear
attr recordingmode vector
attr source throughput(flowPacketLength(demuxFlow(packetPushStarted)))
attr title "flow specific incoming data rate"
attr unit bps
vector 58 HospitalNet.host[1].wlan[0].queue flowOutgoingDataRate:vector ETV
attr interpolationmode linear
attr recordingmode vector
attr source throughput(flowPacketLength(demuxFlow(packetPulled)))
attr title "flow specific outgoing data rate"
attr unit bps
vector 59 HospitalNet.host[1].wlan[0].mac packetDropNotAddressToUs:vector(packetBytes) ETV
attr interpolationmode none
attr recordingmode vector(packetBytes)
attr source packetDropReasonIsNotAddressedToUs(packetDropped)
attr title "packet drop: not addressed to us, packetBytes"
vector 60 HospitalNet.host[1].wlan[0].mac packetDropIncorrectlyReceived:vector(packetBytes) ETV
attr interpolationmode none
attr recordingmode vector(packetBytes)
attr source packetDropReasonIsIncorrectlyReceived(packetDropped)
attr title "packet drop: incorrectly received, packetBytes"
vector 61 HospitalNet.host[1].wlan[0].mac packetDropQueueOverflow:vector(packetBytes) ETV
attr interpolationmode none
attr recordingmode vector(packetBytes)
attr source packetDropReasonIsQueueOverflow(packetDropped)
attr title "packet drop: queue overflow, packetBytes"
vector 62 HospitalNet.host[1].wlan[0].mac packetDropRetryLimitReached:vector(packetBytes) ETV
attr interpolationmode none
attr recordingmode vector(packetBytes)
attr source packetDropReasonIsRetryLimitReached(packetDropped)
attr title "packet drop: retry limit reached, packetBytes"
vector 63 HospitalNet.host[1].wlan[0].mac packetDropBackoffLimitReached:vector(packetBytes) ETV
attr interpolationmode none
attr recordingmode vector(packetBytes)
attr source packetDropReasonIsCongestion(packetDropped)
attr title "packet drop: backoff limit reached, packetBytes"
vector 64 HospitalNet.host[1].wlan[0].radio radioMode:vector ETV
attr interpolationmode sample-hold
attr recordingmode vector
attr source radioModeChanged
attr title "Radio mode"
vector 65 HospitalNet.host[1].wlan[0].radio receptionState:vector ETV
attr interpolationmode sample-hold
attr recordingmode vector
attr source receptionStateChanged
attr title "Radio reception state"
vector 66 HospitalNet.host[1].wlan[0].radio transmissionState:vector ETV
attr interpolationmode sample-hold
attr recordingmode vector
attr source transmissionStateChanged
attr title "Radio transmission state"
vector 67 HospitalNet.host[1].wlan[0] packetDropInterfaceDown:vector(packetBytes) ETV
attr interpolationmode none
attr recordingmode vector(packetBytes)
attr source packetDropReasonIsInterfaceDown(packetDropped)
attr title "packet drops: interface down, packetBytes"
vector 68 HospitalNet.host[1].wlan[0] packetDropNoCarrier:vector(packetBytes) ETV
attr interpolationmode none
attr recordingmode vector(packetBytes)
attr source packetDropReasonIsNoCarrier(packetDropped)
attr title "packet drops: no carrier, packetBytes"
vector 69 HospitalNet.host[1].ipv4.ip packetDropAddressResolutionFailed:vector(packetBytes) ETV
attr interpolationmode none
attr recordingmode vector(packetBytes)
attr source packetDropReasonIsAddressResolutionFailed(packetDropped)
attr title "packet drop: address resolution failed, packetBytes"
vector 70 HospitalNet.host[1].ipv4.ip packetDropHopLimitReached:vector(packetBytes) ETV
attr interpolationmode none
attr recordingmode vector(packetBytes)
attr source packetDropReasonIsHopLimitReached(packetDropped)
attr title "packet drop: hop limit reached, packetBytes"
vector 71 HospitalNet.host[1].ipv4.ip packetDropForwardingDisabled:vector(packetBytes) ETV
attr interpolationmode none
attr recordingmode vector(packetBytes)
attr source packetDropReasonIsForwardingDisabled(packetDropped)
attr title "packet drop: forwarding disabled, packetBytes"
vector 72 HospitalNet.host[1].ipv4.ip packetDropNoInterfaceFound:vector(packetBytes) ETV
attr interpolationmode none
attr recordingmode vector(packetBytes)
attr source packetDropReasonIsNoInterfaceFound(packetDropped)
attr title "packet drop: no interface found, packetBytes"
vector 73 HospitalNet.host[1].ipv4.ip packetDropNoRouteFound:vector(packetBytes) ETV
attr interpolationmode none
attr recordingmode vector(packetBytes)
attr source packetDropReasonIsNoRouteFound(packetDropped)
attr title "packet drop: no route found, packetBytes"
vector 74 HospitalNet.host[1].ipv4.ip packetDropUndefined:vector(packetBytes) ETV
attr interpolationmode none
attr recordingmode vector(packetBytes)
attr source packetDropReasonIsUndefined(packetDropped)
attr title "packet drop: undefined, packetBytes"
vector 75 HospitalNet.host[1].udp packetSent:vector(packetBytes) ETV
attr interpolationmode none
attr recordingmode vector(packetBytes)
attr source packetSent
attr title "packets sent, packetBytes"
vector 76 HospitalNet.host[1].udp packetReceived:vector(packetBytes) ETV
attr interpolationmode none
attr recordingmode vector(packetBytes)
attr source packetReceived
attr title "packets received, packetBytes"
vector 77 HospitalNet.host[1].udp passedUpPk:vector(count) ETV
attr interpolationmode none
attr recordingmode vector(count)
attr source packetSentToUpper
attr title "packets passed up, count"
vector 78 HospitalNet.host[1].udp droppedPkWrongPort:vector(count) ETV
attr interpolationmode none
attr recordingmode vector(count)
attr source packetDropReasonIsNoPortFound(packetDropped)
attr title "packets dropped (wrong port), count"
vector 79 HospitalNet.host[1].udp droppedPkBadChecksum:vector(count) ETV
attr interpolationmode none
attr recordingmode vector(count)
attr source packetDropReasonIsIncorrectlyReceived(packetDropped)
attr title "packets dropped (checksum error), count"
vector 80 HospitalNet.host[1].app[0].sink droppedPacketLengths:vector ETV
attr interpolationmode none
attr recordingmode vector
attr source packetLength(packetDropped)
attr title "dropped packet lengths"
attr unit b
vector 81 HospitalNet.host[1].app[0].sink droppedDataRate:vector ETV
attr interpolationmode linear
attr recordingmode vector
attr source throughput(packetDropped)
attr title "dropped data rate"
attr unit bps
vector 82 HospitalNet.host[1].app[0].sink packetLengths:vector ETV
attr interpolationmode none
attr recordingmode vector
attr source packetLength(packetPushed)
attr title "packet lengths"
attr unit b
vector 83 HospitalNet.host[1].app[0].sink dataRate:vector ETV
attr interpolationmode linear
attr recordingmode vector
attr source throughput(packetPushed)
attr title "data rate"
attr unit bps
vector 84 HospitalNet.host[1].app[0].sink meanBitLifeTimePerPacket:vector ETV
attr interpolationmode none
attr recordingmode vector
attr source weightedMeanPerGroup(groupRegionsPerPacket(lifeTimePerRegion(packetPushed)))
attr title "mean bit life time per packet"
attr unit s
vector 85 HospitalNet.host[1].app[0].sink packetJitter:vector ETV
attr interpolationmode none
attr recordingmode vector
attr source jitter(weightedMeanPerGroup(groupRegionsPerPacket(lifeTimePerRegion(packetPushed))))
attr title "packet jitter"
attr unit s
vector 86 HospitalNet.host[1].app[0].sink packetDelayDifferenceToMean:vector ETV
attr interpolationmode none
attr recordingmode vector
attr source differenceToMean(weightedMeanPerGroup(groupRegionsPerPacket(lifeTimePerRegion(packetPushed))))
attr title "packet delay difference to mean"
attr unit s
vector 87 HospitalNet.host[1].app[0].sink packetDelayVariation:vector ETV
attr recordingmode vector
attr source stddev(weightedMeanPerGroup(groupRegionsPerPacket(lifeTimePerRegion(packetPushed))))
attr title "packet delay variation"
attr unit s
vector 88 HospitalNet.host[2].lo[0].lo rcvdPkFromHl:vector(packetBytes) ETV
attr interpolationmode none
attr recordingmode vector(packetBytes)
attr source packetReceivedFromUpper
attr title "packets received from higher layer, packetBytes"
vector 89 HospitalNet.host[2].lo[0].lo passedUpPk:vector(packetBytes) ETV
attr interpolationmode none
attr recordingmode vector(packetBytes)
attr source packetSentToUpper
attr title "packets passed to higher layer, packetBytes"
vector 90 HospitalNet.host[2].lo[0] packetDropInterfaceDown:vector(packetBytes) ETV
attr interpolationmode none
attr recordingmode vector(packetBytes)
attr source packetDropReasonIsInterfaceDown(packetDropped)
attr title "packet drops: interface down, packetBytes"
vector 91 HospitalNet.host[2].lo[0] packetDropNoCarrier:vector(packetBytes) ETV
attr interpolationmode none
attr recordingmode vector(packetBytes)
attr source packetDropReasonIsNoCarrier(packetDropped)
attr title "packet drops: no carrier, packetBytes"
vector 92 HospitalNet.host[2].wlan[0].queue queueLength:vector ETV
attr autoWarmupFilter false
attr interpolationmode sample-hold
attr recordingmode vector
attr source "warmup(atomic(constant0(packetPushEnded) + count(packetPushStarted) - count(packetPulled) - count(packetRemoved) - count(packetDropped)))"
attr title "queue length"
attr unit pk
vector 93 HospitalNet.host[2].wlan[0].queue queueBitLength:vector ETV
attr autoWarmupFilter false
attr interpolationmode sample-hold
attr recordingmode vector
attr source "warmup(atomic(constant0(packetPushEnded) + sum(packetLength(packetPushStarted)) - sum(packetLength(packetPulled)) - sum(packetLength(packetRemoved)) - sum(packetLength(packetDropped))))"
attr title "queue bit length"
attr unit b
vector 94 HospitalNet.host[2].wlan[0].queue queueingTime:vector ETV
attr interpolationmode none
attr recordingmode vector
attr source queueingTime(packetPulled)
attr title "queueing times"
attr unit s
vector 95 HospitalNet.host[2].wlan[0].queue incomingPacketLengths:vector ETV
attr interpolationmode none
attr recordingmode vector
attr source packetLength(packetPushStarted)
attr title "incoming packet lengths"
attr unit b
vector 96 HospitalNet.host[2].wlan[0].queue incomingDataRate:vector ETV
attr interpolationmode linear
attr recordingmode vector
attr source throughput(packetPushStarted)
attr title "incoming datarate"
attr unit bps
vector 97 HospitalNet.host[2].wlan[0].queue outgoingPacketLengths:vector ETV
attr interpolationmode none
attr recordingmode vector
attr source packetLength(packetPulled)
attr title "outgoing packet lengths"
attr unit b
vector 98 HospitalNet.host[2].wlan[0].queue outgoingDataRate:vector ETV
attr interpolationmode linear
attr recordingmode vector
attr source throughput(packetPulled)
attr title "outgoing datarate"
attr unit bps
vector 99 HospitalNet.host[2].wlan[0].queue droppedPacketLengthsQueueOverflow:vector ETV
attr interpolationmode none
attr recordingmode vector
attr source packetLength(packetDropReasonIsQueueOverflow(packetDropped))
attr title "dropped packet lengths: queue overflow"
attr unit b
vector 100 HospitalNet.host[2].wlan[0].queue flowQueueingTime:vector ETV
attr interpolationmode none
attr recordingmode vector
attr source queueingTime(demuxFlow(packetPulled))
attr title "flow queueing times"
attr unit s
vector 101 HospitalNet.host[2].wlan[0].queue flowIncomingDataRate:vector ETV
attr interpolationmode linear
attr recordingmode vector
attr source throughput(flowPacketLength(demuxFlow(packetPushStarted)))
attr title "flow specific incoming data rate"
attr unit bps
vector 102 HospitalNet.host[2].wlan[0].queue flowOutgoingDataRate:vector ETV
attr interpolationmode linear
attr recordingmode vector
attr source throughput(flowPacketLength(demuxFlow(packetPulled)))
attr title "flow specific outgoing data rate"
attr unit bps
vector 103 HospitalNet.host[2].wlan[0].mac packetDropNotAddressToUs:vector(packetBytes) ETV
attr interpolationmode none
attr recordingmode vector(packetBytes)
attr source packetDropReasonIsNotAddressedToUs(packetDropped)
attr title "packet drop: not addressed to us, packetBytes"
vector 104 HospitalNet.host[2].wlan[0].mac packetDropIncorrectlyReceived:vector(packetBytes) ETV
attr interpolationmode none
attr recordingmode vector(packetBytes)
attr source packetDropReasonIsIncorrectlyReceived(packetDropped)
attr title "packet drop: incorrectly received, packetBytes"
vector 105 HospitalNet.host[2].wlan[0].mac packetDropQueueOverflow:vector(packetBytes) ETV
attr interpolationmode none
attr recordingmode vector(packetBytes)
attr source packetDropReasonIsQueueOverflow(packetDropped)
attr title "packet drop: queue overflow, packetBytes"
vector 106 HospitalNet.host[2].wlan[0].mac packetDropRetryLimitReached:vector(packetBytes) ETV
attr interpolationmode none
attr recordingmode vector(packetBytes)
attr source packetDropReasonIsRetryLimitReached(packetDropped)
attr title "packet drop: retry limit reached, packetBytes"
vector 107 HospitalNet.host[2].wlan[0].mac packetDropBackoffLimitReached:vector(packetBytes) ETV
attr interpolationmode none
attr recordingmode vector(packetBytes)
attr source packetDropReasonIsCongestion(packetDropped)
attr title "packet drop: backoff limit reached, packetBytes"
vector 108 HospitalNet.host[2].wlan[0].radio radioMode:vector ETV
attr interpolationmode sample-hold
attr recordingmode vector
attr source radioModeChanged
attr title "Radio mode"
vector 109 HospitalNet.host[2].wlan[0].radio receptionState:vector ETV
attr interpolationmode sample-hold
attr recordingmode vector
attr source receptionStateChanged
attr title "Radio reception state"
vector 110 HospitalNet.host[2].wlan[0].radio transmissionState:vector ETV
attr interpolationmode sample-hold
attr recordingmode vector
attr source transmissionStateChanged
attr title "Radio transmission state"
vector 111 HospitalNet.host[2].wlan[0] packetDropInterfaceDown:vector(packetBytes) ETV
attr interpolationmode none
attr recordingmode vector(packetBytes)
attr source packetDropReasonIsInterfaceDown(packetDropped)
attr title "packet drops: interface down, packetBytes"
vector 112 HospitalNet.host[2].wlan[0] packetDropNoCarrier:vector(packetBytes) ETV
attr interpolationmode none
attr recordingmode vector(packetBytes)
attr source packetDropReasonIsNoCarrier(packetDropped)
attr title "packet drops: no carrier, packetBytes"
vector 113 HospitalNet.host[2].ipv4.ip packetDropAddressResolutionFailed:vector(packetBytes) ETV
attr interpolationmode none
attr recordingmode vector(packetBytes)
attr source packetDropReasonIsAddressResolutionFailed(packetDropped)
attr title "packet drop: address resolution failed, packetBytes"
vector 114 HospitalNet.host[2].ipv4.ip packetDropHopLimitReached:vector(packetBytes) ETV
attr interpolationmode none
attr recordingmode vector(packetBytes)
attr source packetDropReasonIsHopLimitReached(packetDropped)
attr title "packet drop: hop limit reached, packetBytes"
vector 115 HospitalNet.host[2].ipv4.ip packetDropForwardingDisabled:vector(packetBytes) ETV
attr interpolationmode none
attr recordingmode vector(packetBytes)
attr source packetDropReasonIsForwardingDisabled(packetDropped)
attr title "packet drop: forwarding disabled, packetBytes"
vector 116 HospitalNet.host[2].ipv4.ip packetDropNoInterfaceFound:vector(packetBytes) ETV
attr interpolationmode none
attr recordingmode vector(packetBytes)
attr source packetDropReasonIsNoInterfaceFound(packetDropped)
attr title "packet drop: no interface found, packetBytes"
vector 117 HospitalNet.host[2].ipv4.ip packetDropNoRouteFound:vector(packetBytes) ETV
attr interpolationmode none
attr recordingmode vector(packetBytes)
attr source packetDropReasonIsNoRouteFound(packetDropped)
attr title "packet drop: no route found, packetBytes"
vector 118 HospitalNet.host[2].ipv4.ip packetDropUndefined:vector(packetBytes) ETV
attr interpolationmode none
attr recordingmode vector(packetBytes)
attr source packetDropReasonIsUndefined(packetDropped)
attr title "packet drop: undefined, packetBytes"
vector 119 HospitalNet.host[2].udp packetSent:vector(packetBytes) ETV
attr interpolationmode none
attr recordingmode vector(packetBytes)
attr source packetSent
attr title "packets sent, packetBytes"
vector 120 HospitalNet.host[2].udp packetReceived:vector(packetBytes) ETV
attr interpolationmode none
attr recordingmode vector(packetBytes)
attr source packetReceived
attr title "packets received, packetBytes"
vector 121 HospitalNet.host[2].udp passedUpPk:vector(count) ETV
attr interpolationmode none
attr recordingmode vector(count)
attr source packetSentToUpper
attr title "packets passed up, count"
vector 122 HospitalNet.host[2].udp droppedPkWrongPort:vector(count) ETV
attr interpolationmode none
attr recordingmode vector(count)
attr source packetDropReasonIsNoPortFound(packetDropped)
attr title "packets dropped (wrong port), count"
vector 123 HospitalNet.host[2].udp droppedPkBadChecksum:vector(count) ETV
attr interpolationmode none
attr recordingmode vector(count)
attr source packetDropReasonIsIncorrectlyReceived(packetDropped)
attr title "packets dropped (checksum error), count"
vector 124 HospitalNet.host[2].app[0].sink droppedPacketLengths:vector ETV
attr interpolationmode none
attr recordingmode vector
attr source packetLength(packetDropped)
attr title "dropped packet lengths"
attr unit b
vector 125 HospitalNet.host[2].app[0].sink droppedDataRate:vector ETV
attr interpolationmode linear
attr recordingmode vector
attr source throughput(packetDropped)
attr title "dropped data rate"
attr unit bps
vector 126 HospitalNet.host[2].app[0].sink packetLengths:vector ETV
attr interpolationmode none
attr recordingmode vector
attr source packetLength(packetPushed)
attr title "packet lengths"
attr unit b
vector 127 HospitalNet.host[2].app[0].sink dataRate:vector ETV
attr interpolationmode linear
attr recordingmode vector
attr source throughput(packetPushed)
attr title "data rate"
attr unit bps
vector 128 HospitalNet.host[2].app[0].sink meanBitLifeTimePerPacket:vector ETV
attr interpolationmode none
attr recordingmode vector
attr source weightedMeanPerGroup(groupRegionsPerPacket(lifeTimePerRegion(packetPushed)))
attr title "mean bit life time per packet"
attr unit s
vector 129 HospitalNet.host[2].app[0].sink packetJitter:vector ETV
attr interpolationmode none
attr recordingmode vector
attr source jitter(weightedMeanPerGroup(groupRegionsPerPacket(lifeTimePerRegion(packetPushed))))
attr title "packet jitter"
attr unit s
vector 130 HospitalNet.host[2].app[0].sink packetDelayDifferenceToMean:vector ETV
attr interpolationmode none
attr recordingmode vector
attr source differenceToMean(weightedMeanPerGroup(groupRegionsPerPacket(lifeTimePerRegion(packetPushed))))
attr title "packet delay difference to mean"
attr unit s
vector 131 HospitalNet.host[2].app[0].sink packetDelayVariation:vector ETV
attr recordingmode vector
attr source stddev(weightedMeanPerGroup(groupRegionsPerPacket(lifeTimePerRegion(packetPushed))))
attr title "packet delay variation"
attr unit s
vector 132 HospitalNet.host[3].lo[0].lo rcvdPkFromHl:vector(packetBytes) ETV
attr interpolationmode none
attr recordingmode vector(packetBytes)
attr source packetReceivedFromUpper
attr title "packets received from higher layer, packetBytes"
vector 133 HospitalNet.host[3].lo[0].lo passedUpPk:vector(packetBytes) ETV
attr interpolationmode none
attr recordingmode vector(packetBytes)
attr source packetSentToUpper
attr title "packets passed to higher layer, packetBytes"
vector 134 HospitalNet.host[3].lo[0] packetDropInterfaceDown:vector(packetBytes) ETV
attr interpolationmode none
attr recordingmode vector(packetBytes)
attr source packetDropReasonIsInterfaceDown(packetDropped)
attr title "packet drops: interface down, packetBytes"
vector 135 HospitalNet.host[3].lo[0] packetDropNoCarrier:vector(packetBytes) ETV
attr interpolationmode none
attr recordingmode vector(packetBytes)
attr source packetDropReasonIsNoCarrier(packetDropped)
attr title "packet drops: no carrier, packetBytes"
vector 136 HospitalNet.host[3].wlan[0].queue queueLength:vector ETV
attr autoWarmupFilter false
attr interpolationmode sample-hold
attr recordingmode vector
attr source "warmup(atomic(constant0(packetPushEnded) + count(packetPushStarted) - count(packetPulled) - count(packetRemoved) - count(packetDropped)))"
attr title "queue length"
attr unit pk
vector 137 HospitalNet.host[3].wlan[0].queue queueBitLength:vector ETV
attr autoWarmupFilter false
attr interpolationmode sample-hold
attr recordingmode vector
attr source "warmup(atomic(constant0(packetPushEnded) + sum(packetLength(packetPushStarted)) - sum(packetLength(packetPulled)) - sum(packetLength(packetRemoved)) - sum(packetLength(packetDropped))))"
attr title "queue bit length"
attr unit b
vector 138 HospitalNet.host[3].wlan[0].queue queueingTime:vector ETV
attr interpolationmode none
attr recordingmode vector
attr source queueingTime(packetPulled)
attr title "queueing times"
attr unit s
vector 139 HospitalNet.host[3].wlan[0].queue incomingPacketLengths:vector ETV
attr interpolationmode none
attr recordingmode vector
attr source packetLength(packetPushStarted)
attr title "incoming packet lengths"
attr unit b
vector 140 HospitalNet.host[3].wlan[0].queue incomingDataRate:vector ETV
attr interpolationmode linear
attr recordingmode vector
attr source throughput(packetPushStarted)
attr title "incoming datarate"
attr unit bps
vector 141 HospitalNet.host[3].wlan[0].queue outgoingPacketLengths:vector ETV
attr interpolationmode none
attr recordingmode vector
attr source packetLength(packetPulled)
attr title "outgoing packet lengths"
attr unit b
vector 142 HospitalNet.host[3].wlan[0].queue outgoingDataRate:vector ETV
attr interpolationmode linear
attr recordingmode vector
attr source throughput(packetPulled)
attr title "outgoing datarate"
attr unit bps
vector 143 HospitalNet.host[3].wlan[0].queue droppedPacketLengthsQueueOverflow:vector ETV
attr interpolationmode none
attr recordingmode vector
attr source packetLength(packetDropReasonIsQueueOverflow(packetDropped))
attr title "dropped packet lengths: queue overflow"
attr unit b
vector 144 HospitalNet.host[3].wlan[0].queue flowQueueingTime:vector ETV
attr interpolationmode none
attr recordingmode vector
attr source queueingTime(demuxFlow(packetPulled))
attr title "flow queueing times"
attr unit s
vector 145 HospitalNet.host[3].wlan[0].queue flowIncomingDataRate:vector ETV
attr interpolationmode linear
attr recordingmode vector
attr source throughput(flowPacketLength(demuxFlow(packetPushStarted)))
attr title "flow specific incoming data rate"
attr unit bps
vector 146 HospitalNet.host[3].wlan[0].queue flowOutgoingDataRate:vector ETV
attr interpolationmode linear
attr recordingmode vector
attr source throughput(flowPacketLength(demuxFlow(packetPulled)))
attr title "flow specific outgoing data rate"
attr unit bps
vector 147 HospitalNet.host[3].wlan[0].mac packetDropNotAddressToUs:vector(packetBytes) ETV
attr interpolationmode none
attr recordingmode vector(packetBytes)
attr source packetDropReasonIsNotAddressedToUs(packetDropped)
attr title "packet drop: not addressed to us, packetBytes"
vector 148 HospitalNet.host[3].wlan[0].mac packetDropIncorrectlyReceived:vector(packetBytes) ETV
attr interpolationmode none
attr recordingmode vector(packetBytes)
attr source packetDropReasonIsIncorrectlyReceived(packetDropped)
attr title "packet drop: incorrectly received, packetBytes"
vector 149 HospitalNet.host[3].wlan[0].mac packetDropQueueOverflow:vector(packetBytes) ETV
attr interpolationmode none
attr recordingmode vector(packetBytes)
attr source packetDropReasonIsQueueOverflow(packetDropped)
attr title "packet drop: queue overflow, packetBytes"
vector 150 HospitalNet.host[3].wlan[0].mac packetDropRetryLimitReached:vector(packetBytes) ETV
attr interpolationmode none
attr recordingmode vector(packetBytes)
attr source packetDropReasonIsRetryLimitReached(packetDropped)
attr title "packet drop: retry limit reached, packetBytes"
vector 151 HospitalNet.host[3].wlan[0].mac packetDropBackoffLimitReached:vector(packetBytes) ETV
attr interpolationmode none
attr recordingmode vector(packetBytes)
attr source packetDropReasonIsCongestion(packetDropped)
attr title "packet drop: backoff limit reached, packetBytes"
vector 152 HospitalNet.host[3].wlan[0].radio radioMode:vector ETV
attr interpolationmode sample-hold
attr recordingmode vector
attr source radioModeChanged
attr title "Radio mode"
vector 153 HospitalNet.host[3].wlan[0].radio receptionState:vector ETV
attr interpolationmode sample-hold
attr recordingmode vector
attr source receptionStateChanged
attr title "Radio reception state"
vector 154 HospitalNet.host[3].wlan[0].radio transmissionState:vector ETV
attr interpolationmode sample-hold
attr recordingmode vector
attr source transmissionStateChanged
attr title "Radio transmission state"
vector 155 HospitalNet.host[3].wlan[0] packetDropInterfaceDown:vector(packetBytes) ETV
attr interpolationmode none
attr recordingmode vector(packetBytes)
attr source packetDropReasonIsInterfaceDown(packetDropped)
attr title "packet drops: interface down, packetBytes"
vector 156 HospitalNet.host[3].wlan[0] packetDropNoCarrier:vector(packetBytes) ETV
attr interpolationmode none
attr recordingmode vector(packetBytes)
attr source packetDropReasonIsNoCarrier(packetDropped)
attr title "packet drops: no carrier, packetBytes"
vector 157 HospitalNet.host[3].ipv4.ip packetDropAddressResolutionFailed:vector(packetBytes) ETV
attr interpolationmode none
attr recordingmode vector(packetBytes)
attr source packetDropReasonIsAddressResolutionFailed(packetDropped)
attr title "packet drop: address resolution failed, packetBytes"
vector 158 HospitalNet.host[3].ipv4.ip packetDropHopLimitReached:vector(packetBytes) ETV
attr interpolationmode none
attr recordingmode vector(packetBytes)
attr source packetDropReasonIsHopLimitReached(packetDropped)
attr title "packet drop: hop limit reached, packetBytes"
vector 159 HospitalNet.host[3].ipv4.ip packetDropForwardingDisabled:vector(packetBytes) ETV
attr interpolationmode none
attr recordingmode vector(packetBytes)
attr source packetDropReasonIsForwardingDisabled(packetDropped)
attr title "packet drop: forwarding disabled, packetBytes"
vector 160 HospitalNet.host[3].ipv4.ip packetDropNoInterfaceFound:vector(packetBytes) ETV
attr interpolationmode none
attr recordingmode vector(packetBytes)
attr source packetDropReasonIsNoInterfaceFound(packetDropped)
attr title "packet drop: no interface found, packetBytes"
vector 161 HospitalNet.host[3].ipv4.ip packetDropNoRouteFound:vector(packetBytes) ETV
attr interpolationmode none
attr recordingmode vector(packetBytes)
attr source packetDropReasonIsNoRouteFound(packetDropped)
attr title "packet drop: no route found, packetBytes"
vector 162 HospitalNet.host[3].ipv4.ip packetDropUndefined:vector(packetBytes) ETV
attr interpolationmode none
attr recordingmode vector(packetBytes)
attr source packetDropReasonIsUndefined(packetDropped)
attr title "packet drop: undefined, packetBytes"
vector 163 HospitalNet.host[3].udp packetSent:vector(packetBytes) ETV
attr interpolationmode none
attr recordingmode vector(packetBytes)
attr source packetSent
attr title "packets sent, packetBytes"
vector 164 HospitalNet.host[3].udp packetReceived:vector(packetBytes) ETV
attr interpolationmode none
attr recordingmode vector(packetBytes)
attr source packetReceived
attr title "packets received, packetBytes"
vector 165 HospitalNet.host[3].udp passedUpPk:vector(count) ETV
attr interpolationmode none
attr recordingmode vector(count)
attr source packetSentToUpper
attr title "packets passed up, count"
vector 166 HospitalNet.host[3].udp droppedPkWrongPort:vector(count) ETV
attr interpolationmode none
attr recordingmode vector(count)
attr source packetDropReasonIsNoPortFound(packetDropped)
attr title "packets dropped (wrong port), count"
vector 167 HospitalNet.host[3].udp droppedPkBadChecksum:vector(count) ETV
attr interpolationmode none
attr recordingmode vector(count)
attr source packetDropReasonIsIncorrectlyReceived(packetDropped)
attr title "packets dropped (checksum error), count"
vector 168 HospitalNet.host[3].app[0].sink droppedPacketLengths:vector ETV
attr interpolationmode none
attr recordingmode vector
attr source packetLength(packetDropped)
attr title "dropped packet lengths"
attr unit b
vector 169 HospitalNet.host[3].app[0].sink droppedDataRate:vector ETV
attr interpolationmode linear
attr recordingmode vector
attr source throughput(packetDropped)
attr title "dropped data rate"
attr unit bps
vector 170 HospitalNet.host[3].app[0].sink packetLengths:vector ETV
attr interpolationmode none
attr recordingmode vector
attr source packetLength(packetPushed)
attr title "packet lengths"
attr unit b
vector 171 HospitalNet.host[3].app[0].sink dataRate:vector ETV
attr interpolationmode linear
attr recordingmode vector
attr source throughput(packetPushed)
attr title "data rate"
attr unit bps
vector 172 HospitalNet.host[3].app[0].sink meanBitLifeTimePerPacket:vector ETV
attr interpolationmode none
attr recordingmode vector
attr source weightedMeanPerGroup(groupRegionsPerPacket(lifeTimePerRegion(packetPushed)))
attr title "mean bit life time per packet"
attr unit s
vector 173 HospitalNet.host[3].app[0].sink packetJitter:vector ETV
attr interpolationmode none
attr recordingmode vector
attr source jitter(weightedMeanPerGroup(groupRegionsPerPacket(lifeTimePerRegion(packetPushed))))
attr title "packet jitter"
attr unit s
vector 174 HospitalNet.host[3].app[0].sink packetDelayDifferenceToMean:vector ETV
attr interpolationmode none
attr recordingmode vector
attr source differenceToMean(weightedMeanPerGroup(groupRegionsPerPacket(lifeTimePerRegion(packetPushed))))
attr title "packet delay difference to mean"
attr unit s
vector 175 HospitalNet.host[3].app[0].sink packetDelayVariation:vector ETV
attr recordingmode vector
attr source stddev(weightedMeanPerGroup(groupRegionsPerPacket(lifeTimePerRegion(packetPushed))))
attr title "packet delay variation"
attr unit s
vector 176 HospitalNet.host[4].lo[0].lo rcvdPkFromHl:vector(packetBytes) ETV
attr interpolationmode none
attr recordingmode vector(packetBytes)
attr source packetReceivedFromUpper
attr title "packets received from higher layer, packetBytes"
vector 177 HospitalNet.host[4].lo[0].lo passedUpPk:vector(packetBytes) ETV
attr interpolationmode none
attr recordingmode vector(packetBytes)
attr source packetSentToUpper
attr title "packets passed to higher layer, packetBytes"
vector 178 HospitalNet.host[4].lo[0] packetDropInterfaceDown:vector(packetBytes) ETV
attr interpolationmode none
attr recordingmode vector(packetBytes)
attr source packetDropReasonIsInterfaceDown(packetDropped)
attr title "packet drops: interface down, packetBytes"
vector 179 HospitalNet.host[4].lo[0] packetDropNoCarrier:vector(packetBytes) ETV
attr interpolationmode none
attr recordingmode vector(packetBytes)
attr source packetDropReasonIsNoCarrier(packetDropped)
attr title "packet drops: no carrier, packetBytes"
vector 180 HospitalNet.host[4].wlan[0].queue queueLength:vector ETV
attr autoWarmupFilter false
attr interpolationmode sample-hold
attr recordingmode vector
attr source "warmup(atomic(constant0(packetPushEnded) + count(packetPushStarted) - count(packetPulled) - count(packetRemoved) - count(packetDropped)))"
attr title "queue length"
attr unit pk
vector 181 HospitalNet.host[4].wlan[0].queue queueBitLength:vector ETV
attr autoWarmupFilter false
attr interpolationmode sample-hold
attr recordingmode vector
attr source "warmup(atomic(constant0(packetPushEnded) + sum(packetLength(packetPushStarted)) - sum(packetLength(packetPulled)) - sum(packetLength(packetRemoved)) - sum(packetLength(packetDropped))))"
attr title "queue bit length"
attr unit b
vector 182 HospitalNet.host[4].wlan[0].queue queueingTime:vector ETV
attr interpolationmode none
attr recordingmode vector
attr source queueingTime(packetPulled)
attr title "queueing times"
attr unit s
vector 183 HospitalNet.host[4].wlan[0].queue incomingPacketLengths:vector ETV
attr interpolationmode none
attr recordingmode vector
attr source packetLength(packetPushStarted)
attr title "incoming packet lengths"
attr unit b
vector 184 HospitalNet.host[4].wlan[0].queue incomingDataRate:vector ETV
attr interpolationmode linear
attr recordingmode vector
attr source throughput(packetPushStarted)
attr title "incoming datarate"
attr unit bps
vector 185 HospitalNet.host[4].wlan[0].queue outgoingPacketLengths:vector ETV
attr interpolationmode none
attr recordingmode vector
attr source packetLength(packetPulled)
attr title "outgoing packet lengths"
attr unit b
vector 186 HospitalNet.host[4].wlan[0].queue outgoingDataRate:vector ETV
attr interpolationmode linear
attr recordingmode vector
attr source throughput(packetPulled)
attr title "outgoing datarate"
attr unit bps
vector 187 HospitalNet.host[4].wlan[0].queue droppedPacketLengthsQueueOverflow:vector ETV
attr interpolationmode none
attr recordingmode vector
attr source packetLength(packetDropReasonIsQueueOverflow(packetDropped))
attr title "dropped packet lengths: queue overflow"
attr unit b
vector 188 HospitalNet.host[4].wlan[0].queue flowQueueingTime:vector ETV
attr interpolationmode none
attr recordingmode vector
attr source queueingTime(demuxFlow(packetPulled))
attr title "flow queueing times"
attr unit s
vector 189 HospitalNet.host[4].wlan[0].queue flowIncomingDataRate:vector ETV
attr interpolationmode linear
attr recordingmode vector
attr source throughput(flowPacketLength(demuxFlow(packetPushStarted)))
attr title "flow specific incoming data rate"
attr unit bps
vector 190 HospitalNet.host[4].wlan[0].queue flowOutgoingDataRate:vector ETV
attr interpolationmode linear
attr recordingmode vector
attr source throughput(flowPacketLength(demuxFlow(packetPulled)))
attr title "flow specific outgoing data rate"
attr unit bps
vector 191 HospitalNet.host[4].wlan[0].mac packetDropNotAddressToUs:vector(packetBytes) ETV
attr interpolationmode none
attr recordingmode vector(packetBytes)
attr source packetDropReasonIsNotAddressedToUs(packetDropped)
attr title "packet drop: not addressed to us, packetBytes"
vector 192 HospitalNet.host[4].wlan[0].mac packetDropIncorrectlyReceived:vector(packetBytes) ETV
attr interpolationmode none
attr recordingmode vector(packetBytes)
attr source packetDropReasonIsIncorrectlyReceived(packetDropped)
attr title "packet drop: incorrectly received, packetBytes"
vector 193 HospitalNet.host[4].wlan[0].mac packetDropQueueOverflow:vector(packetBytes) ETV
attr interpolationmode none
attr recordingmode vector(packetBytes)
attr source packetDropReasonIsQueueOverflow(packetDropped)
attr title "packet drop: queue overflow, packetBytes"
vector 194 HospitalNet.host[4].wlan[0].mac packetDropRetryLimitReached:vector(packetBytes) ETV
attr interpolationmode none
attr recordingmode vector(packetBytes)
attr source packetDropReasonIsRetryLimitReached(packetDropped)
attr title "packet drop: retry limit reached, packetBytes"
vector 195 HospitalNet.host[4].wlan[0].mac packetDropBackoffLimitReached:vector(packetBytes) ETV
attr interpolationmode none
attr recordingmode vector(packetBytes)
attr source packetDropReasonIsCongestion(packetDropped)
attr title "packet drop: backoff limit reached, packetBytes"
vector 196 HospitalNet.host[4].wlan[0].radio radioMode:vector ETV
attr interpolationmode sample-hold
attr recordingmode vector
attr source radioModeChanged
attr title "Radio mode"
vector 197 HospitalNet.host[4].wlan[0].radio receptionState:vector ETV
attr interpolationmode sample-hold
attr recordingmode vector
attr source receptionStateChanged
attr title "Radio reception state"
vector 198 HospitalNet.host[4].wlan[0].radio transmissionState:vector ETV
attr interpolationmode sample-hold
attr recordingmode vector
attr source transmissionStateChanged
attr title "Radio transmission state"
vector 199 HospitalNet.host[4].wlan[0] packetDropInterfaceDown:vector(packetBytes) ETV
attr interpolationmode none
attr recordingmode vector(packetBytes)
attr source packetDropReasonIsInterfaceDown(packetDropped)
attr title "packet drops: interface down, packetBytes"
vector 200 HospitalNet.host[4].wlan[0] packetDropNoCarrier:vector(packetBytes) ETV
attr interpolationmode none
attr recordingmode vector(packetBytes)
attr source packetDropReasonIsNoCarrier(packetDropped)
attr title "packet drops: no carrier, packetBytes"
vector 201 HospitalNet.host[4].ipv4.ip packetDropAddressResolutionFailed:vector(packetBytes) ETV
attr interpolationmode none
attr recordingmode vector(packetBytes)
attr source packetDropReasonIsAddressResolutionFailed(packetDropped)
attr title "packet drop: address resolution failed, packetBytes"
vector 202 HospitalNet.host[4].ipv4.ip packetDropHopLimitReached:vector(packetBytes) ETV
attr interpolationmode none
attr recordingmode vector(packetBytes)
attr source packetDropReasonIsHopLimitReached(packetDropped)
attr title "packet drop: hop limit reached, packetBytes"
vector 203 HospitalNet.host[4].ipv4.ip packetDropForwardingDisabled:vector(packetBytes) ETV
attr interpolationmode none
attr recordingmode vector(packetBytes)
attr source packetDropReasonIsForwardingDisabled(packetDropped)
attr title "packet drop: forwarding disabled, packetBytes"
vector 204 HospitalNet.host[4].ipv4.ip packetDropNoInterfaceFound:vector(packetBytes) ETV
attr interpolationmode none
attr recordingmode vector(packetBytes)
attr source packetDropReasonIsNoInterfaceFound(packetDropped)
attr title "packet drop: no interface found, packetBytes"
vector 205 HospitalNet.host[4].ipv4.ip packetDropNoRouteFound:vector(packetBytes) ETV
attr interpolationmode none
attr recordingmode vector(packetBytes)
attr source packetDropReasonIsNoRouteFound(packetDropped)
attr title "packet drop: no route found, packetBytes"
vector 206 HospitalNet.host[4].ipv4.ip packetDropUndefined:vector(packetBytes) ETV
attr interpolationmode none
attr recordingmode vector(packetBytes)
attr source packetDropReasonIsUndefined(packetDropped)
attr title "packet drop: undefined, packetBytes"
vector 207 HospitalNet.host[4].udp packetSent:vector(packetBytes) ETV
attr interpolationmode none
attr recordingmode vector(packetBytes)
attr source packetSent
attr title "packets sent, packetBytes"
vector 208 HospitalNet.host[4].udp packetReceived:vector(packetBytes) ETV
attr interpolationmode none
attr recordingmode vector(packetBytes)
attr source packetReceived
attr title "packets received, packetBytes"
vector 209 HospitalNet.host[4].udp passedUpPk:vector(count) ETV
attr interpolationmode none
attr recordingmode vector(count)
attr source packetSentToUpper
attr title "packets passed up, count"
vector 210 HospitalNet.host[4].udp droppedPkWrongPort:vector(count) ETV
attr interpolationmode none
attr recordingmode vector(count)
attr source packetDropReasonIsNoPortFound(packetDropped)
attr title "packets dropped (wrong port), count"
vector 211 HospitalNet.host[4].udp droppedPkBadChecksum:vector(count) ETV
attr interpolationmode none
attr recordingmode vector(count)
attr source packetDropReasonIsIncorrectlyReceived(packetDropped)
attr title "packets dropped (checksum error), count"
vector 212 HospitalNet.host[4].app[0].sink droppedPacketLengths:vector ETV
attr interpolationmode none
attr recordingmode vector
attr source packetLength(packetDropped)
attr title "dropped packet lengths"
attr unit b
vector 213 HospitalNet.host[4].app[0].sink droppedDataRate:vector ETV
attr interpolationmode linear
attr recordingmode vector
attr source throughput(packetDropped)
attr title "dropped data rate"
attr unit bps
vector 214 HospitalNet.host[4].app[0].sink packetLengths:vector ETV
attr interpolationmode none
attr recordingmode vector
attr source packetLength(packetPushed)
attr title "packet lengths"
attr unit b
vector 215 HospitalNet.host[4].app[0].sink dataRate:vector ETV
attr interpolationmode linear
attr recordingmode vector
attr source throughput(packetPushed)
attr title "data rate"
attr unit bps
vector 216 HospitalNet.host[4].app[0].sink meanBitLifeTimePerPacket:vector ETV
attr interpolationmode none
attr recordingmode vector
attr source weightedMeanPerGroup(groupRegionsPerPacket(lifeTimePerRegion(packetPushed)))
attr title "mean bit life time per packet"
attr unit s
vector 217 HospitalNet.host[4].app[0].sink packetJitter:vector ETV
attr interpolationmode none
attr recordingmode vector
attr source jitter(weightedMeanPerGroup(groupRegionsPerPacket(lifeTimePerRegion(packetPushed))))
attr title "packet jitter"
attr unit s
vector 218 HospitalNet.host[4].app[0].sink packetDelayDifferenceToMean:vector ETV
attr interpolationmode none
attr recordingmode vector
attr source differenceToMean(weightedMeanPerGroup(groupRegionsPerPacket(lifeTimePerRegion(packetPushed))))
attr title "packet delay difference to mean"
attr unit s
vector 219 HospitalNet.host[4].app[0].sink packetDelayVariation:vector ETV
attr recordingmode vector
attr source stddev(weightedMeanPerGroup(groupRegionsPerPacket(lifeTimePerRegion(packetPushed))))
attr title "packet delay variation"
attr unit s
vector 220 HospitalNet.host[5].lo[0].lo rcvdPkFromHl:vector(packetBytes) ETV
attr interpolationmode none
attr recordingmode vector(packetBytes)
attr source packetReceivedFromUpper
attr title "packets received from higher layer, packetBytes"
vector 221 HospitalNet.host[5].lo[0].lo passedUpPk:vector(packetBytes) ETV
attr interpolationmode none
attr recordingmode vector(packetBytes)
attr source packetSentToUpper
attr title "packets passed to higher layer, packetBytes"
vector 222 HospitalNet.host[5].lo[0] packetDropInterfaceDown:vector(packetBytes) ETV
attr interpolationmode none
attr recordingmode vector(packetBytes)
attr source packetDropReasonIsInterfaceDown(packetDropped)
attr title "packet drops: interface down, packetBytes"
vector 223 HospitalNet.host[5].lo[0] packetDropNoCarrier:vector(packetBytes) ETV
attr interpolationmode none
attr recordingmode vector(packetBytes)
attr source packetDropReasonIsNoCarrier(packetDropped)
attr title "packet drops: no carrier, packetBytes"
vector 224 HospitalNet.host[5].wlan[0].queue queueLength:vector ETV
attr autoWarmupFilter false
attr interpolationmode sample-hold
attr recordingmode vector
attr source "warmup(atomic(constant0(packetPushEnded) + count(packetPushStarted) - count(packetPulled) - count(packetRemoved) - count(packetDropped)))"
attr title "queue length"
attr unit pk
vector 225 HospitalNet.host[5].wlan[0].queue queueBitLength:vector ETV
attr autoWarmupFilter false
attr interpolationmode sample-hold
attr recordingmode vector
attr source "warmup(atomic(constant0(packetPushEnded) + sum(packetLength(packetPushStarted)) - sum(packetLength(packetPulled)) - sum(packetLength(packetRemoved)) - sum(packetLength(packetDropped))))"
attr title "queue bit length"
attr unit b
vector 226 HospitalNet.host[5].wlan[0].queue queueingTime:vector ETV
attr interpolationmode none
attr recordingmode vector
attr source queueingTime(packetPulled)
attr title "queueing times"
attr unit s
vector 227 HospitalNet.host[5].wlan[0].queue incomingPacketLengths:vector ETV
attr interpolationmode none
attr recordingmode vector
attr source packetLength(packetPushStarted)
attr title "incoming packet lengths"
attr unit b
vector 228 HospitalNet.host[5].wlan[0].queue incomingDataRate:vector ETV
attr interpolationmode linear
attr recordingmode vector
attr source throughput(packetPushStarted)
attr title "incoming datarate"
attr unit bps
vector 229 HospitalNet.host[5].wlan[0].queue outgoingPacketLengths:vector ETV
attr interpolationmode none
attr recordingmode vector
attr source packetLength(packetPulled)
attr title "outgoing packet lengths"
attr unit b
vector 230 HospitalNet.host[5].wlan[0].queue outgoingDataRate:vector ETV
attr interpolationmode linear
attr recordingmode vector
attr source throughput(packetPulled)
attr title "outgoing datarate"
attr unit bps
vector 231 HospitalNet.host[5].wlan[0].queue droppedPacketLengthsQueueOverflow:vector ETV
attr interpolationmode none
attr recordingmode vector
attr source packetLength(packetDropReasonIsQueueOverflow(packetDropped))
attr title "dropped packet lengths: queue overflow"
attr unit b
vector 232 HospitalNet.host[5].wlan[0].queue flowQueueingTime:vector ETV
attr interpolationmode none
attr recordingmode vector
attr source queueingTime(demuxFlow(packetPulled))
attr title "flow queueing times"
attr unit s
vector 233 HospitalNet.host[5].wlan[0].queue flowIncomingDataRate:vector ETV
attr interpolationmode linear
attr recordingmode vector
attr source throughput(flowPacketLength(demuxFlow(packetPushStarted)))
attr title "flow specific incoming data rate"
attr unit bps
vector 234 HospitalNet.host[5].wlan[0].queue flowOutgoingDataRate:vector ETV
attr interpolationmode linear
attr recordingmode vector
attr source throughput(flowPacketLength(demuxFlow(packetPulled)))
attr title "flow specific outgoing data rate"
attr unit bps
vector 235 HospitalNet.host[5].wlan[0].mac packetDropNotAddressToUs:vector(packetBytes) ETV
attr interpolationmode none
attr recordingmode vector(packetBytes)
attr source packetDropReasonIsNotAddressedToUs(packetDropped)
attr title "packet drop: not addressed to us, packetBytes"
vector 236 HospitalNet.host[5].wlan[0].mac packetDropIncorrectlyReceived:vector(packetBytes) ETV
attr interpolationmode none
attr recordingmode vector(packetBytes)
attr source packetDropReasonIsIncorrectlyReceived(packetDropped)
attr title "packet drop: incorrectly received, packetBytes"
vector 237 HospitalNet.host[5].wlan[0].mac packetDropQueueOverflow:vector(packetBytes) ETV
attr interpolationmode none
attr recordingmode vector(packetBytes)
attr source packetDropReasonIsQueueOverflow(packetDropped)
attr title "packet drop: queue overflow, packetBytes"
vector 238 HospitalNet.host[5].wlan[0].mac packetDropRetryLimitReached:vector(packetBytes) ETV
attr interpolationmode none
attr recordingmode vector(packetBytes)
attr source packetDropReasonIsRetryLimitReached(packetDropped)
attr title "packet drop: retry limit reached, packetBytes"
vector 239 HospitalNet.host[5].wlan[0].mac packetDropBackoffLimitReached:vector(packetBytes) ETV
attr interpolationmode none
attr recordingmode vector(packetBytes)
attr source packetDropReasonIsCongestion(packetDropped)
attr title "packet drop: backoff limit reached, packetBytes"
vector 240 HospitalNet.host[5].wlan[0].radio radioMode:vector ETV
attr interpolationmode sample-hold
attr recordingmode vector
attr source radioModeChanged
attr title "Radio mode"
vector 241 HospitalNet.host[5].wlan[0].radio receptionState:vector ETV
attr interpolationmode sample-hold
attr recordingmode vector
attr source receptionStateChanged
attr title "Radio reception state"
vector 242 HospitalNet.host[5].wlan[0].radio transmissionState:vector ETV
attr interpolationmode sample-hold
attr recordingmode vector
attr source transmissionStateChanged
attr title "Radio transmission state"
vector 243 HospitalNet.host[5].wlan[0] packetDropInterfaceDown:vector(packetBytes) ETV
attr interpolationmode none
attr recordingmode vector(packetBytes)
attr source packetDropReasonIsInterfaceDown(packetDropped)
attr title "packet drops: interface down, packetBytes"
vector 244 HospitalNet.host[5].wlan[0] packetDropNoCarrier:vector(packetBytes) ETV
attr interpolationmode none
attr recordingmode vector(packetBytes)
attr source packetDropReasonIsNoCarrier(packetDropped)
attr title "packet drops: no carrier, packetBytes"
vector 245 HospitalNet.host[5].ipv4.ip packetDropAddressResolutionFailed:vector(packetBytes) ETV
attr interpolationmode none
attr recordingmode vector(packetBytes)
attr source packetDropReasonIsAddressResolutionFailed(packetDropped)
attr title "packet drop: address resolution failed, packetBytes"
vector 246 HospitalNet.host[5].ipv4.ip packetDropHopLimitReached:vector(packetBytes) ETV
attr interpolationmode none
attr recordingmode vector(packetBytes)
attr source packetDropReasonIsHopLimitReached(packetDropped)
attr title "packet drop: hop limit reached, packetBytes"
vector 247 HospitalNet.host[5].ipv4.ip packetDropForwardingDisabled:vector(packetBytes) ETV
attr interpolationmode none
attr recordingmode vector(packetBytes)
attr source packetDropReasonIsForwardingDisabled(packetDropped)
attr title "packet drop: forwarding disabled, packetBytes"
vector 248 HospitalNet.host[5].ipv4.ip packetDropNoInterfaceFound:vector(packetBytes) ETV
attr interpolationmode none
attr recordingmode vector(packetBytes)
attr source packetDropReasonIsNoInterfaceFound(packetDropped)
attr title "packet drop: no interface found, packetBytes"
vector 249 HospitalNet.host[5].ipv4.ip packetDropNoRouteFound:vector(packetBytes) ETV
attr interpolationmode none
attr recordingmode vector(packetBytes)
attr source packetDropReasonIsNoRouteFound(packetDropped)
attr title "packet drop: no route found, packetBytes"
vector 250 HospitalNet.host[5].ipv4.ip packetDropUndefined:vector(packetBytes) ETV
attr interpolationmode none
attr recordingmode vector(packetBytes)
attr source packetDropReasonIsUndefined(packetDropped)
attr title "packet drop: undefined, packetBytes"
vector 251 HospitalNet.host[5].udp packetSent:vector(packetBytes) ETV
attr interpolationmode none
attr recordingmode vector(packetBytes)
attr source packetSent
attr title "packets sent, packetBytes"
vector 252 HospitalNet.host[5].udp packetReceived:vector(packetBytes) ETV
attr interpolationmode none
attr recordingmode vector(packetBytes)
attr source packetReceived
attr title "packets received, packetBytes"
vector 253 HospitalNet.host[5].udp passedUpPk:vector(count) ETV
attr interpolationmode none
attr recordingmode vector(count)
attr source packetSentToUpper
attr title "packets passed up, count"
vector 254 HospitalNet.host[5].udp droppedPkWrongPort:vector(count) ETV
attr interpolationmode none
attr recordingmode vector(count)
attr source packetDropReasonIsNoPortFound(packetDropped)
attr title "packets dropped (wrong port), count"
vector 255 HospitalNet.host[5].udp droppedPkBadChecksum:vector(count) ETV
attr interpolationmode none
attr recordingmode vector(count)
attr source packetDropReasonIsIncorrectlyReceived(packetDropped)
attr title "packets dropped (checksum error), count"
vector 256 HospitalNet.host[5].app[0].sink droppedPacketLengths:vector ETV
attr interpolationmode none
attr recordingmode vector
attr source packetLength(packetDropped)
attr title "dropped packet lengths"
attr unit b
vector 257 HospitalNet.host[5].app[0].sink droppedDataRate:vector ETV
attr interpolationmode linear
attr recordingmode vector
attr source throughput(packetDropped)
attr title "dropped data rate"
attr unit bps
vector 258 HospitalNet.host[5].app[0].sink packetLengths:vector ETV
attr interpolationmode none
attr recordingmode vector
attr source packetLength(packetPushed)
attr title "packet lengths"
attr unit b
vector 259 HospitalNet.host[5].app[0].sink dataRate:vector ETV
attr interpolationmode linear
attr recordingmode vector
attr source throughput(packetPushed)
attr title "data rate"
attr unit bps
vector 260 HospitalNet.host[5].app[0].sink meanBitLifeTimePerPacket:vector ETV
attr interpolationmode none
attr recordingmode vector
attr source weightedMeanPerGroup(groupRegionsPerPacket(lifeTimePerRegion(packetPushed)))
attr title "mean bit life time per packet"
attr unit s
vector 261 HospitalNet.host[5].app[0].sink packetJitter:vector ETV
attr interpolationmode none
attr recordingmode vector
attr source jitter(weightedMeanPerGroup(groupRegionsPerPacket(lifeTimePerRegion(packetPushed))))
attr title "packet jitter"
attr unit s
vector 262 HospitalNet.host[5].app[0].sink packetDelayDifferenceToMean:vector ETV
attr interpolationmode none
attr recordingmode vector
attr source differenceToMean(weightedMeanPerGroup(groupRegionsPerPacket(lifeTimePerRegion(packetPushed))))
attr title "packet delay difference to mean"
attr unit s
vector 263 HospitalNet.host[5].app[0].sink packetDelayVariation:vector ETV
attr recordingmode vector
attr source stddev(weightedMeanPerGroup(groupRegionsPerPacket(lifeTimePerRegion(packetPushed))))
attr title "packet delay variation"
attr unit s
vector 264 HospitalNet.host[6].lo[0].lo rcvdPkFromHl:vector(packetBytes) ETV
attr interpolationmode none
attr recordingmode vector(packetBytes)
attr source packetReceivedFromUpper
attr title "packets received from higher layer, packetBytes"
vector 265 HospitalNet.host[6].lo[0].lo passedUpPk:vector(packetBytes) ETV
attr interpolationmode none
attr recordingmode vector(packetBytes)
attr source packetSentToUpper
attr title "packets passed to higher layer, packetBytes"
vector 266 HospitalNet.host[6].lo[0] packetDropInterfaceDown:vector(packetBytes) ETV
attr interpolationmode none
attr recordingmode vector(packetBytes)
attr source packetDropReasonIsInterfaceDown(packetDropped)
attr title "packet drops: interface down, packetBytes"
vector 267 HospitalNet.host[6].lo[0] packetDropNoCarrier:vector(packetBytes) ETV
attr interpolationmode none
attr recordingmode vector(packetBytes)
attr source packetDropReasonIsNoCarrier(packetDropped)
attr title "packet drops: no carrier, packetBytes"
vector 268 HospitalNet.host[6].wlan[0].queue queueLength:vector ETV
attr autoWarmupFilter false
attr interpolationmode sample-hold
attr recordingmode vector
attr source "warmup(atomic(constant0(packetPushEnded) + count(packetPushStarted) - count(packetPulled) - count(packetRemoved) - count(packetDropped)))"
attr title "queue length"
attr unit pk
vector 269 HospitalNet.host[6].wlan[0].queue queueBitLength:vector ETV
attr autoWarmupFilter false
attr interpolationmode sample-hold
attr recordingmode vector
attr source "warmup(atomic(constant0(packetPushEnded) + sum(packetLength(packetPushStarted)) - sum(packetLength(packetPulled)) - sum(packetLength(packetRemoved)) - sum(packetLength(packetDropped))))"
attr title "queue bit length"
attr unit b
vector 270 HospitalNet.host[6].wlan[0].queue queueingTime:vector ETV
attr interpolationmode none
attr recordingmode vector
attr source queueingTime(packetPulled)
attr title "queueing times"
attr unit s
vector 271 HospitalNet.host[6].wlan[0].queue incomingPacketLengths:vector ETV
attr interpolationmode none
attr recordingmode vector
attr source packetLength(packetPushStarted)
attr title "incoming packet lengths"
attr unit b
vector 272 HospitalNet.host[6].wlan[0].queue incomingDataRate:vector ETV
attr interpolationmode linear
attr recordingmode vector
attr source throughput(packetPushStarted)
attr title "incoming datarate"
attr unit bps
vector 273 HospitalNet.host[6].wlan[0].queue outgoingPacketLengths:vector ETV
attr interpolationmode none
attr recordingmode vector
attr source packetLength(packetPulled)
attr title "outgoing packet lengths"
attr unit b
vector 274 HospitalNet.host[6].wlan[0].queue outgoingDataRate:vector ETV
attr interpolationmode linear
attr recordingmode vector
attr source throughput(packetPulled)
attr title "outgoing datarate"
attr unit bps
vector 275 HospitalNet.host[6].wlan[0].queue droppedPacketLengthsQueueOverflow:vector ETV
attr interpolationmode none
attr recordingmode vector
attr source packetLength(packetDropReasonIsQueueOverflow(packetDropped))
[...]
963	3935	20.9	0
963	3935	21	0
963	3935	21.1	0
963	3935	21.2	0
963	3935	21.3	0
963	3935	21.4	0
963	3935	21.5	0
963	3935	21.6	0
963	3935	21.7	0
963	3935	21.8	0
963	3935	21.9	0
963	3935	22	0
963	3935	22.1	0
963	3935	22.2	0
963	3935	22.3	0
963	3935	22.4	0
963	3935	22.5	0
963	3935	22.6	0
963	3935	22.7	0
963	3935	22.8	0
963	3935	22.9	0
963	3935	23	0
963	3935	23.1	0
963	3935	23.2	0
963	3935	23.3	0
963	3935	23.4	0
963	3935	23.5	0
963	3935	23.6	0
963	3935	23.7	0
963	3935	23.8	0
963	3935	23.9	0
963	3935	24	0
963	3935	24.1	0
963	3935	24.2	0
963	3935	24.3	0
963	3935	24.4	0
963	3935	24.5	0
963	3935	24.6	0
963	3935	24.7	0
963	3935	24.8	0
963	3935	24.9	0
963	3935	25	0
963	3935	25.1	0
963	3935	25.2	0
963	3935	25.3	0
963	3935	25.4	0
963	3935	25.5	0
963	3935	25.6	0
963	3935	25.7	0
963	3935	25.8	0
963	3935	25.9	0
963	3935	26	0
963	3935	26.1	0
963	3935	26.2	0
963	3935	26.3	0
963	3935	26.4	0
963	3935	26.5	0
963	3935	26.6	0
963	3935	26.7	0
963	3935	26.8	0
963	3935	26.9	0
963	3935	27	0
963	3935	27.1	0
963	3935	27.2	0
963	3935	27.3	0
963	3935	27.4	0
963	3935	27.5	0
963	3935	27.6	0
963	3935	27.7	0
963	3935	27.8	0
963	3935	27.9	0
963	3935	28	0
963	3935	28.1	0
963	3935	28.2	0
963	3935	28.3	0
963	3935	28.4	0
963	3935	28.5	0
963	3935	28.6	0
963	3935	28.7	0
963	3935	28.8	0
963	3935	28.9	0
963	3935	29	0
963	3935	29.1	0
963	3935	29.2	0
963	3935	29.3	0
963	3935	29.4	0
963	3935	29.5	0
963	3935	29.6	0
963	3935	29.7	0
963	3935	29.8	0
963	3935	29.9	0
963	3935	30	0
963	3935	30.1	0
963	3935	30.2	0
963	3935	30.3	0
963	3935	30.4	0
963	3935	30.5	0
963	3935	30.6	0
963	3935	30.7	0
963	3935	30.8	0
963	3935	30.9	0
963	3935	31	0
963	3935	31.1	0
963	3935	31.2	0
963	3935	31.3	0
963	3935	31.4	0
963	3935	31.5	0
963	3935	31.6	0
963	3935	31.7	0
963	3935	31.8	0
963	3935	31.9	0
963	3935	32	0
963	3935	32.1	0
963	3935	32.2	0
963	3935	32.3	0
963	3935	32.4	0
963	3935	32.5	0
963	3935	32.6	0
963	3935	32.7	0
963	3935	32.8	0
963	3935	32.9	0
963	3935	33	0
963	3935	33.1	0
963	3935	33.2	0
963	3935	33.3	0
963	3935	33.4	0
963	3935	33.5	0
963	3935	33.6	0
963	3935	33.7	0
963	3935	33.8	0
963	3935	33.9	0
963	3935	34	0
963	3935	34.1	0
963	3935	34.2	0
963	3935	34.3	0
963	3935	34.4	0
963	3935	34.5	0
963	3935	34.6	0
963	3935	34.7	0
963	3935	34.767780227307	0
975	3935	0.1	0
975	3935	0.2	0
975	3935	0.3	0
975	3935	0.4	0
975	3935	0.5	0
975	3935	0.6	0
975	3935	0.7	0
975	3935	0.8	0
975	3935	0.9	0
975	3935	1	0
975	3935	1.1	0
975	3935	1.2	0
975	3935	1.3	0
975	3935	1.4	0
975	3935	1.5	0
975	3935	1.6	0
975	3935	1.7	0
975	3935	1.8	0
975	3935	1.9	0
975	3935	2	0
975	3935	2.1	0
975	3935	2.2	0
975	3935	2.3	0
975	3935	2.4	0
975	3935	2.5	0
975	3935	2.6	0
975	3935	2.7	0
975	3935	2.8	0
975	3935	2.9	0
975	3935	3	0
975	3935	3.1	0
975	3935	3.2	0
975	3935	3.3	0
975	3935	3.4	0
975	3935	3.5	0
975	3935	3.6	0
975	3935	3.7	0
975	3935	3.8	0
975	3935	3.9	0
975	3935	4	0
975	3935	4.1	0
975	3935	4.2	0
975	3935	4.3	0
975	3935	4.4	0
975	3935	4.5	0
975	3935	4.6	0
975	3935	4.7	0
975	3935	4.8	0
975	3935	4.9	0
975	3935	5	0
975	3935	5.1	0
975	3935	5.2	0
975	3935	5.3	0
975	3935	5.4	0
975	3935	5.5	0
975	3935	5.6	0
975	3935	5.7	0
975	3935	5.8	0
975	3935	5.9	0
975	3935	6	0
975	3935	6.1	0
975	3935	6.2	0
975	3935	6.3	0
975	3935	6.4	0
975	3935	6.5	0
975	3935	6.6	0
975	3935	6.7	0
975	3935	6.8	0
975	3935	6.9	0
975	3935	7	0
975	3935	7.1	0
975	3935	7.2	0
975	3935	7.3	0
975	3935	7.4	0
975	3935	7.5	0
975	3935	7.6	0
975	3935	7.7	0
975	3935	7.8	0
975	3935	7.9	0
975	3935	8	0
975	3935	8.1	0
975	3935	8.2	0
975	3935	8.3	0
975	3935	8.4	0
975	3935	8.5	0
975	3935	8.6	0
975	3935	8.7	0
975	3935	8.8	0
975	3935	8.9	0
975	3935	9	0
975	3935	9.1	0
975	3935	9.2	0
975	3935	9.3	0
975	3935	9.4	0
975	3935	9.5	0
975	3935	9.6	0
975	3935	9.7	0
975	3935	9.8	0
975	3935	9.9	0
975	3935	10	0
975	3935	10.1	0
975	3935	10.2	0
975	3935	10.3	0
975	3935	10.4	0
975	3935	10.5	0
975	3935	10.6	0
975	3935	10.7	0
975	3935	10.8	0
975	3935	10.9	0
975	3935	11	0
975	3935	11.1	0
975	3935	11.2	0
975	3935	11.3	0
975	3935	11.4	0
975	3935	11.5	0
975	3935	11.6	0
975	3935	11.7	0
975	3935	11.8	0
975	3935	11.9	0
975	3935	12	0
975	3935	12.1	0
975	3935	12.2	0
975	3935	12.3	0
975	3935	12.4	0
975	3935	12.5	0
975	3935	12.6	0
975	3935	12.7	0
975	3935	12.8	0
975	3935	12.9	0
975	3935	13	0
975	3935	13.1	0
975	3935	13.2	0
975	3935	13.3	0
975	3935	13.4	0
975	3935	13.5	0
975	3935	13.6	0
975	3935	13.7	0
975	3935	13.8	0
975	3935	13.9	0
975	3935	14	0
975	3935	14.1	0
975	3935	14.2	0
975	3935	14.3	0
975	3935	14.4	0
975	3935	14.5	0
975	3935	14.6	0
975	3935	14.7	0
975	3935	14.8	0
975	3935	14.9	0
975	3935	15	0
975	3935	15.1	0
975	3935	15.2	0
975	3935	15.3	0
975	3935	15.4	0
975	3935	15.5	0
975	3935	15.6	0
975	3935	15.7	0
975	3935	15.8	0
975	3935	15.9	0
975	3935	16	0
975	3935	16.1	0
975	3935	16.2	0
975	3935	16.3	0
975	3935	16.4	0
975	3935	16.5	0
975	3935	16.6	0
975	3935	16.7	0
975	3935	16.8	0
975	3935	16.9	0
975	3935	17	0
975	3935	17.1	0
975	3935	17.2	0
975	3935	17.3	0
975	3935	17.4	0
975	3935	17.5	0
975	3935	17.6	0
975	3935	17.7	0
975	3935	17.8	0
975	3935	17.9	0
975	3935	18	0
975	3935	18.1	0
975	3935	18.2	0
975	3935	18.3	0
975	3935	18.4	0
975	3935	18.5	0
975	3935	18.6	0
975	3935	18.7	0
975	3935	18.8	0
975	3935	18.9	0
975	3935	19	0
975	3935	19.1	0
975	3935	19.2	0
975	3935	19.3	0
975	3935	19.4	0
975	3935	19.5	0
975	3935	19.6	0
975	3935	19.7	0
975	3935	19.8	0
975	3935	19.9	0
975	3935	20	0
975	3935	20.1	0
975	3935	20.2	0
975	3935	20.3	0
975	3935	20.4	0
975	3935	20.5	0
975	3935	20.6	0
975	3935	20.7	0
975	3935	20.8	0
975	3935	20.9	0
975	3935	21	0
975	3935	21.1	0
975	3935	21.2	0
975	3935	21.3	0
975	3935	21.4	0
975	3935	21.5	0
975	3935	21.6	0
975	3935	21.7	0
975	3935	21.8	0
975	3935	21.9	0
975	3935	22	0
975	3935	22.1	0
975	3935	22.2	0
975	3935	22.3	0
975	3935	22.4	0
975	3935	22.5	0
975	3935	22.6	0
975	3935	22.7	0
975	3935	22.8	0
975	3935	22.9	0
975	3935	23	0
975	3935	23.1	0
975	3935	23.2	0
975	3935	23.3	0
975	3935	23.4	0
975	3935	23.5	0
975	3935	23.6	0
975	3935	23.7	0
975	3935	23.8	0
975	3935	23.9	0
975	3935	24	0
975	3935	24.1	0
975	3935	24.2	0
975	3935	24.3	0
975	3935	24.4	0
975	3935	24.5	0
975	3935	24.6	0
975	3935	24.7	0
975	3935	24.8	0
975	3935	24.9	0
975	3935	25	0
975	3935	25.1	0
975	3935	25.2	0
975	3935	25.3	0
975	3935	25.4	0
975	3935	25.5	0
975	3935	25.6	0
975	3935	25.7	0
975	3935	25.8	0
975	3935	25.9	0
975	3935	26	0
975	3935	26.1	0
975	3935	26.2	0
975	3935	26.3	0
975	3935	26.4	0
975	3935	26.5	0
975	3935	26.6	0
975	3935	26.7	0
975	3935	26.8	0
975	3935	26.9	0
975	3935	27	0
975	3935	27.1	0
975	3935	27.2	0
975	3935	27.3	0
975	3935	27.4	0
975	3935	27.5	0
975	3935	27.6	0
975	3935	27.7	0
975	3935	27.8	0
975	3935	27.9	0
975	3935	28	0
975	3935	28.1	0
975	3935	28.2	0
975	3935	28.3	0
975	3935	28.4	0
975	3935	28.5	0
975	3935	28.6	0
975	3935	28.7	0
975	3935	28.8	0
975	3935	28.9	0
975	3935	29	0
975	3935	29.1	0
975	3935	29.2	0
975	3935	29.3	0
975	3935	29.4	0
975	3935	29.5	0
975	3935	29.6	0
975	3935	29.7	0
975	3935	29.8	0
975	3935	29.9	0
975	3935	30	0
975	3935	30.1	0
975	3935	30.2	0
975	3935	30.3	0
975	3935	30.4	0
975	3935	30.5	0
975	3935	30.6	0
975	3935	30.7	0
975	3935	30.8	0
975	3935	30.9	0
975	3935	31	0
975	3935	31.1	0
975	3935	31.2	0
975	3935	31.3	0
975	3935	31.4	0
975	3935	31.5	0
975	3935	31.6	0
975	3935	31.7	0
975	3935	31.8	0
975	3935	31.9	0
975	3935	32	0
975	3935	32.1	0
975	3935	32.2	0
975	3935	32.3	0
975	3935	32.4	0
975	3935	32.5	0
975	3935	32.6	0
975	3935	32.7	0
975	3935	32.8	0
975	3935	32.9	0
975	3935	33	0
975	3935	33.1	0
975	3935	33.2	0
975	3935	33.3	0
975	3935	33.4	0
975	3935	33.5	0
975	3935	33.6	0
975	3935	33.7	0
975	3935	33.8	0
975	3935	33.9	0
975	3935	34	0
975	3935	34.1	0
975	3935	34.2	0
975	3935	34.3	0
975	3935	34.4	0
975	3935	34.5	0
975	3935	34.6	0
975	3935	34.7	0
975	3935	34.767780227307	0
977	3935	0.1	0
977	3935	0.2	0
977	3935	0.3	0
977	3935	0.4	0
977	3935	0.5	0
977	3935	0.6	0
977	3935	0.7	0
977	3935	0.8	0
977	3935	0.9	0
977	3935	1	0
977	3935	1.1	0
977	3935	1.2	0
977	3935	1.3	0
977	3935	1.4	0
977	3935	1.5	0
977	3935	1.6	0
977	3935	1.7	0
977	3935	1.8	0
977	3935	1.9	0
977	3935	2	0
977	3935	2.1	0
977	3935	2.2	0
977	3935	2.3	0
977	3935	2.4	0
977	3935	2.5	0
977	3935	2.6	0
977	3935	2.7	0
977	3935	2.8	0
977	3935	2.9	0
977	3935	3	0
977	3935	3.1	0
977	3935	3.2	0
977	3935	3.3	0
977	3935	3.4	0
977	3935	3.5	0
977	3935	3.6	0
977	3935	3.7	0
977	3935	3.8	0
977	3935	3.9	0
977	3935	4	0
977	3935	4.1	0
977	3935	4.2	0
977	3935	4.3	0
977	3935	4.4	0
977	3935	4.5	0
977	3935	4.6	0
977	3935	4.7	0
977	3935	4.8	0
977	3935	4.9	0
977	3935	5	0
977	3935	5.1	0
977	3935	5.2	0
977	3935	5.3	0
977	3935	5.4	0
977	3935	5.5	0
977	3935	5.6	0
977	3935	5.7	0
977	3935	5.8	0
977	3935	5.9	0
977	3935	6	0
977	3935	6.1	0
977	3935	6.2	0
977	3935	6.3	0
977	3935	6.4	0
977	3935	6.5	0
977	3935	6.6	0
977	3935	6.7	0
977	3935	6.8	0
977	3935	6.9	0
977	3935	7	0
977	3935	7.1	0
977	3935	7.2	0
977	3935	7.3	0
977	3935	7.4	0
977	3935	7.5	0
977	3935	7.6	0
977	3935	7.7	0
977	3935	7.8	0
977	3935	7.9	0
977	3935	8	0
977	3935	8.1	0
977	3935	8.2	0
977	3935	8.3	0
977	3935	8.4	0
977	3935	8.5	0
977	3935	8.6	0
977	3935	8.7	0
977	3935	8.8	0
977	3935	8.9	0
977	3935	9	0
977	3935	9.1	0
977	3935	9.2	0
977	3935	9.3	0
977	3935	9.4	0
977	3935	9.5	0
977	3935	9.6	0
977	3935	9.7	0
977	3935	9.8	0
977	3935	9.9	0
977	3935	10	0
977	3935	10.1	0
977	3935	10.2	0
977	3935	10.3	0
977	3935	10.4	0
977	3935	10.5	0
977	3935	10.6	0
977	3935	10.7	0
977	3935	10.8	0
977	3935	10.9	0
977	3935	11	0
977	3935	11.1	0
977	3935	11.2	0
977	3935	11.3	0
977	3935	11.4	0
977	3935	11.5	0
977	3935	11.6	0
977	3935	11.7	0
977	3935	11.8	0
977	3935	11.9	0
977	3935	12	0
977	3935	12.1	0
977	3935	12.2	0
977	3935	12.3	0
977	3935	12.4	0
977	3935	12.5	0
977	3935	12.6	0
977	3935	12.7	0
977	3935	12.8	0
977	3935	12.9	0
977	3935	13	0
977	3935	13.1	0
977	3935	13.2	0
977	3935	13.3	0
977	3935	13.4	0
977	3935	13.5	0
977	3935	13.6	0
977	3935	13.7	0
977	3935	13.8	0
977	3935	13.9	0
977	3935	14	0
977	3935	14.1	0
977	3935	14.2	0
977	3935	14.3	0
977	3935	14.4	0
977	3935	14.5	0
977	3935	14.6	0
977	3935	14.7	0
977	3935	14.8	0
977	3935	14.9	0
977	3935	15	0
977	3935	15.1	0
977	3935	15.2	0
977	3935	15.3	0
977	3935	15.4	0
977	3935	15.5	0
977	3935	15.6	0
977	3935	15.7	0
977	3935	15.8	0
977	3935	15.9	0
977	3935	16	0
977	3935	16.1	0
977	3935	16.2	0
977	3935	16.3	0
977	3935	16.4	0
977	3935	16.5	0
977	3935	16.6	0
977	3935	16.7	0
977	3935	16.8	0
977	3935	16.9	0
977	3935	17	0
977	3935	17.1	0
977	3935	17.2	0
977	3935	17.3	0
977	3935	17.4	0
977	3935	17.5	0
977	3935	17.6	0
977	3935	17.7	0
977	3935	17.8	0
977	3935	17.9	0
977	3935	18	0
977	3935	18.1	0
977	3935	18.2	0
977	3935	18.3	0
977	3935	18.4	0
977	3935	18.5	0
977	3935	18.6	0
977	3935	18.7	0
977	3935	18.8	0
977	3935	18.9	0
977	3935	19	0
977	3935	19.1	0
977	3935	19.2	0
977	3935	19.3	0
977	3935	19.4	0
977	3935	19.5	0
977	3935	19.6	0
977	3935	19.7	0
977	3935	19.8	0
977	3935	19.9	0
977	3935	20	0
977	3935	20.1	0
977	3935	20.2	0
977	3935	20.3	0
977	3935	20.4	0
977	3935	20.5	0
977	3935	20.6	0
977	3935	20.7	0
977	3935	20.8	0
977	3935	20.9	0
977	3935	21	0
977	3935	21.1	0
977	3935	21.2	0
977	3935	21.3	0
977	3935	21.4	0
977	3935	21.5	0
977	3935	21.6	0
977	3935	21.7	0
977	3935	21.8	0
977	3935	21.9	0
977	3935	22	0
977	3935	22.1	0
977	3935	22.2	0
977	3935	22.3	0
977	3935	22.4	0
977	3935	22.5	0
977	3935	22.6	0
977	3935	22.7	0
977	3935	22.8	0
977	3935	22.9	0
977	3935	23	0
977	3935	23.1	0
977	3935	23.2	0
977	3935	23.3	0
977	3935	23.4	0
977	3935	23.5	0
977	3935	23.6	0
977	3935	23.7	0
977	3935	23.8	0
977	3935	23.9	0
977	3935	24	0
977	3935	24.1	0
977	3935	24.2	0
977	3935	24.3	0
977	3935	24.4	0
977	3935	24.5	0
977	3935	24.6	0
977	3935	24.7	0
977	3935	24.8	0
977	3935	24.9	0
977	3935	25	0
977	3935	25.1	0
977	3935	25.2	0
977	3935	25.3	0
977	3935	25.4	0
977	3935	25.5	0
977	3935	25.6	0
977	3935	25.7	0
977	3935	25.8	0
977	3935	25.9	0
977	3935	26	0
977	3935	26.1	0
977	3935	26.2	0
977	3935	26.3	0
977	3935	26.4	0
977	3935	26.5	0
977	3935	26.6	0
977	3935	26.7	0
977	3935	26.8	0
977	3935	26.9	0
977	3935	27	0
977	3935	27.1	0
977	3935	27.2	0
977	3935	27.3	0
977	3935	27.4	0
977	3935	27.5	0
977	3935	27.6	0
977	3935	27.7	0
977	3935	27.8	0
977	3935	27.9	0
977	3935	28	0
977	3935	28.1	0
977	3935	28.2	0
977	3935	28.3	0
977	3935	28.4	0
977	3935	28.5	0
977	3935	28.6	0
977	3935	28.7	0
977	3935	28.8	0
977	3935	28.9	0
977	3935	29	0
977	3935	29.1	0
977	3935	29.2	0
977	3935	29.3	0
977	3935	29.4	0
977	3935	29.5	0
977	3935	29.6	0
977	3935	29.7	0
977	3935	29.8	0
977	3935	29.9	0
977	3935	30	0
977	3935	30.1	0
977	3935	30.2	0
977	3935	30.3	0
977	3935	30.4	0
977	3935	30.5	0
977	3935	30.6	0
977	3935	30.7	0
977	3935	30.8	0
977	3935	30.9	0
977	3935	31	0
977	3935	31.1	0
977	3935	31.2	0
977	3935	31.3	0
977	3935	31.4	0
977	3935	31.5	0
977	3935	31.6	0
977	3935	31.7	0
977	3935	31.8	0
977	3935	31.9	0
977	3935	32	0
977	3935	32.1	0
977	3935	32.2	0
977	3935	32.3	0
977	3935	32.4	0
977	3935	32.5	0
977	3935	32.6	0
977	3935	32.7	0
977	3935	32.8	0
977	3935	32.9	0
977	3935	33	0
977	3935	33.1	0
977	3935	33.2	0
977	3935	33.3	0
977	3935	33.4	0
977	3935	33.5	0
977	3935	33.6	0
977	3935	33.7	0
977	3935	33.8	0
977	3935	33.9	0
977	3935	34	0
977	3935	34.1	0
977	3935	34.2	0
977	3935	34.3	0
977	3935	34.4	0
977	3935	34.5	0
977	3935	34.6	0
977	3935	34.7	0
977	3935	34.767780227307	0
1004	3935	0.1	0
1004	3935	0.2	0
1004	3935	0.3	0
1004	3935	0.4	0
1004	3935	0.5	0
1004	3935	0.6	0
1004	3935	0.7	0
1004	3935	0.8	0
1004	3935	0.9	0
1004	3935	1	0
1004	3935	1.1	0
1004	3935	1.2	0
1004	3935	1.3	0
1004	3935	1.4	0
1004	3935	1.5	0
1004	3935	1.6	0
1004	3935	1.7	0
1004	3935	1.8	0
1004	3935	1.9	0
1004	3935	2	0
1004	3935	2.1	0
1004	3935	2.2	0
1004	3935	2.3	0
1004	3935	2.4	0
1004	3935	2.5	0
1004	3935	2.6	0
1004	3935	2.7	0
1004	3935	2.8	0
1004	3935	2.9	0
1004	3935	3	0
1004	3935	3.1	0
1004	3935	3.2	0
1004	3935	3.3	0
1004	3935	3.4	0
1004	3935	3.5	0
1004	3935	3.6	0
1004	3935	3.7	0
1004	3935	3.8	0
1004	3935	3.9	0
1004	3935	4	0
1004	3935	4.1	0
1004	3935	4.2	0
1004	3935	4.3	0
1004	3935	4.4	0
1004	3935	4.5	0
1004	3935	4.6	0
1004	3935	4.7	0
1004	3935	4.8	0
1004	3935	4.9	0
1004	3935	5	0
1004	3935	5.1	0
1004	3935	5.2	0
1004	3935	5.3	0
1004	3935	5.4	0
1004	3935	5.5	0
1004	3935	5.6	0
1004	3935	5.7	0
1004	3935	5.8	0
1004	3935	5.9	0
1004	3935	6	0
1004	3935	6.1	0
1004	3935	6.2	0
1004	3935	6.3	0
1004	3935	6.4	0
1004	3935	6.5	0
1004	3935	6.6	0
1004	3935	6.7	0
1004	3935	6.8	0
1004	3935	6.9	0
1004	3935	7	0
1004	3935	7.1	0
1004	3935	7.2	0
1004	3935	7.3	0
1004	3935	7.4	0
1004	3935	7.5	0
1004	3935	7.6	0
1004	3935	7.7	0
1004	3935	7.8	0
1004	3935	7.9	0
1004	3935	8	0
1004	3935	8.1	0
1004	3935	8.2	0
1004	3935	8.3	0
1004	3935	8.4	0
1004	3935	8.5	0
1004	3935	8.6	0
1004	3935	8.7	0
1004	3935	8.8	0
1004	3935	8.9	0
1004	3935	9	0
1004	3935	9.1	0
1004	3935	9.2	0
1004	3935	9.3	0
1004	3935	9.4	0
1004	3935	9.5	0
1004	3935	9.6	0
1004	3935	9.7	0
1004	3935	9.8	0
1004	3935	9.9	0
1004	3935	10	0
1004	3935	10.1	0
1004	3935	10.2	0
1004	3935	10.3	0
1004	3935	10.4	0
1004	3935	10.5	0
1004	3935	10.6	0
1004	3935	10.7	0
1004	3935	10.8	0
1004	3935	10.9	0
1004	3935	11	0
1004	3935	11.1	0
1004	3935	11.2	0
1004	3935	11.3	0
1004	3935	11.4	0
1004	3935	11.5	0
1004	3935	11.6	0
1004	3935	11.7	0
1004	3935	11.8	0
1004	3935	11.9	0
1004	3935	12	0
1004	3935	12.1	0
1004	3935	12.2	0
1004	3935	12.3	0
1004	3935	12.4	0
1004	3935	12.5	0
1004	3935	12.6	0
1004	3935	12.7	0
1004	3935	12.8	0
1004	3935	12.9	0
1004	3935	13	0
1004	3935	13.1	0
1004	3935	13.2	0
1004	3935	13.3	0
1004	3935	13.4	0
1004	3935	13.5	0
1004	3935	13.6	0
1004	3935	13.7	0
1004	3935	13.8	0
1004	3935	13.9	0
1004	3935	14	0
1004	3935	14.1	0
1004	3935	14.2	0
1004	3935	14.3	0
1004	3935	14.4	0
1004	3935	14.5	0
1004	3935	14.6	0
1004	3935	14.7	0
1004	3935	14.8	0
1004	3935	14.9	0
1004	3935	15	0
1004	3935	15.1	0
1004	3935	15.2	0
1004	3935	15.3	0
1004	3935	15.4	0
1004	3935	15.5	0
1004	3935	15.6	0
1004	3935	15.7	0
1004	3935	15.8	0
1004	3935	15.9	0
1004	3935	16	0
1004	3935	16.1	0
1004	3935	16.2	0
1004	3935	16.3	0
1004	3935	16.4	0
1004	3935	16.5	0
1004	3935	16.6	0
1004	3935	16.7	0
1004	3935	16.8	0
1004	3935	16.9	0
1004	3935	17	0
1004	3935	17.1	0
1004	3935	17.2	0
1004	3935	17.3	0
1004	3935	17.4	0
1004	3935	17.5	0
1004	3935	17.6	0
1004	3935	17.7	0
1004	3935	17.8	0
1004	3935	17.9	0
1004	3935	18	0
1004	3935	18.1	0
1004	3935	18.2	0
1004	3935	18.3	0
1004	3935	18.4	0
1004	3935	18.5	0
1004	3935	18.6	0
1004	3935	18.7	0
1004	3935	18.8	0
1004	3935	18.9	0
1004	3935	19	0
1004	3935	19.1	0
1004	3935	19.2	0
1004	3935	19.3	0
1004	3935	19.4	0
1004	3935	19.5	0
1004	3935	19.6	0
1004	3935	19.7	0
1004	3935	19.8	0
1004	3935	19.9	0
1004	3935	20	0
1004	3935	20.1	0
1004	3935	20.2	0
1004	3935	20.3	0
1004	3935	20.4	0
1004	3935	20.5	0
1004	3935	20.6	0
1004	3935	20.7	0
1004	3935	20.8	0
1004	3935	20.9	0
1004	3935	21	0
1004	3935	21.1	0
1004	3935	21.2	0
1004	3935	21.3	0
1004	3935	21.4	0
1004	3935	21.5	0
1004	3935	21.6	0
1004	3935	21.7	0
1004	3935	21.8	0
1004	3935	21.9	0
1004	3935	22	0
1004	3935	22.1	0
1004	3935	22.2	0
1004	3935	22.3	0
1004	3935	22.4	0
1004	3935	22.5	0
1004	3935	22.6	0
1004	3935	22.7	0
1004	3935	22.8	0
1004	3935	22.9	0
1004	3935	23	0
1004	3935	23.1	0
1004	3935	23.2	0
1004	3935	23.3	0
1004	3935	23.4	0
1004	3935	23.5	0
1004	3935	23.6	0
1004	3935	23.7	0
1004	3935	23.8	0
1004	3935	23.9	0
1004	3935	24	0
1004	3935	24.1	0
1004	3935	24.2	0
1004	3935	24.3	0
1004	3935	24.4	0
1004	3935	24.5	0
1004	3935	24.6	0
1004	3935	24.7	0
1004	3935	24.8	0
1004	3935	24.9	0
1004	3935	25	0
1004	3935	25.1	0
1004	3935	25.2	0
1004	3935	25.3	0
1004	3935	25.4	0
1004	3935	25.5	0
1004	3935	25.6	0
1004	3935	25.7	0
1004	3935	25.8	0
1004	3935	25.9	0
1004	3935	26	0
1004	3935	26.1	0
1004	3935	26.2	0
1004	3935	26.3	0
1004	3935	26.4	0
1004	3935	26.5	0
1004	3935	26.6	0
1004	3935	26.7	0
1004	3935	26.8	0
1004	3935	26.9	0
1004	3935	27	0
1004	3935	27.1	0
1004	3935	27.2	0
1004	3935	27.3	0
1004	3935	27.4	0
1004	3935	27.5	0
1004	3935	27.6	0
1004	3935	27.7	0
1004	3935	27.8	0
1004	3935	27.9	0
1004	3935	28	0
1004	3935	28.1	0
1004	3935	28.2	0
1004	3935	28.3	0
1004	3935	28.4	0
1004	3935	28.5	0
1004	3935	28.6	0
1004	3935	28.7	0
1004	3935	28.8	0
1004	3935	28.9	0
1004	3935	29	0
1004	3935	29.1	0
1004	3935	29.2	0
1004	3935	29.3	0
1004	3935	29.4	0
1004	3935	29.5	0
1004	3935	29.6	0
1004	3935	29.7	0
1004	3935	29.8	0
1004	3935	29.9	0
1004	3935	30	0
1004	3935	30.1	0
1004	3935	30.2	0
1004	3935	30.3	0
1004	3935	30.4	0
1004	3935	30.5	0
1004	3935	30.6	0
1004	3935	30.7	0
1004	3935	30.8	0
1004	3935	30.9	0
1004	3935	31	0
1004	3935	31.1	0
1004	3935	31.2	0
1004	3935	31.3	0
1004	3935	31.4	0
1004	3935	31.5	0
1004	3935	31.6	0
1004	3935	31.7	0
1004	3935	31.8	0
1004	3935	31.9	0
1004	3935	32	0
1004	3935	32.1	0
1004	3935	32.2	0
1004	3935	32.3	0
1004	3935	32.4	0
1004	3935	32.5	0
1004	3935	32.6	0
1004	3935	32.7	0
1004	3935	32.8	0
1004	3935	32.9	0
1004	3935	33	0
1004	3935	33.1	0
1004	3935	33.2	0
1004	3935	33.3	0
1004	3935	33.4	0
1004	3935	33.5	0
1004	3935	33.6	0
1004	3935	33.7	0
1004	3935	33.8	0
1004	3935	33.9	0
1004	3935	34	0
1004	3935	34.1	0
1004	3935	34.2	0
1004	3935	34.3	0
1004	3935	34.4	0
1004	3935	34.5	0
1004	3935	34.6	0
1004	3935	34.7	0
1004	3935	34.767780227307	0

