version 3
run General-0-20260405-21:00:48-17732
attr configname General
attr datetime 20260405-21:00:48
attr datetimef 20260405-210048
attr experiment General
attr inifile omnetpp.ini
attr iterationvars ""
attr iterationvarsd ""
attr iterationvarsf ""
attr measurement ""
attr network VitalGuardNet
attr processid 17732
attr repetition 0
attr replication #0
attr resultdir results
attr runnumber 0
attr seedset 0
config image-path ../inet4.5/images
config network VitalGuardNet
config sim-time-limit 10s
config *.physicalEnvironment.config "xmldoc(\"hospital_obstacles.xml\")"
config *.radioMedium.typename Ieee80211ScalarRadioMedium
config *.radioMedium.obstacleLoss.typename DielectricObstacleLoss
config *.bileklik.numApps 1
config *.gateway.numApps 0
config *.bileklik.app[0].typename PingApp
config *.bileklik.app[0].destAddr "\"gateway\""
config *.visualizer.*.mediumVisualizer.displaySignals true
config *.visualizer.*.mediumVisualizer.displaySignalDepartures true
config *.visualizer.*.mediumVisualizer.displaySignalArrivals true

par VitalGuardNet.visualizer.canvasVisualizer.sceneVisualizer typename "\"inet.visualizer.canvas.scene.SceneCanvasVisualizer\""
par VitalGuardNet.visualizer.canvasVisualizer.sceneVisualizer visualizationTargetModule "\"^.^.^\""
par VitalGuardNet.visualizer.canvasVisualizer.sceneVisualizer visualizationSubjectModule "\"^.^.^\""
par VitalGuardNet.visualizer.canvasVisualizer.sceneVisualizer tags "\"\""
par VitalGuardNet.visualizer.canvasVisualizer.sceneVisualizer physicalEnvironmentModule "\"physicalEnvironment\""
par VitalGuardNet.visualizer.canvasVisualizer.sceneVisualizer networkNodeVisualizerModule "\"^.networkNodeVisualizer\""
par VitalGuardNet.visualizer.canvasVisualizer.sceneVisualizer axisLength "nan m"
attr mutable ""
attr unit m
par VitalGuardNet.visualizer.canvasVisualizer.sceneVisualizer animationSpeed 0
par VitalGuardNet.visualizer.canvasVisualizer.sceneVisualizer sceneMinX "nan m"
attr unit m
par VitalGuardNet.visualizer.canvasVisualizer.sceneVisualizer sceneMinY "nan m"
attr unit m
par VitalGuardNet.visualizer.canvasVisualizer.sceneVisualizer sceneMinZ "nan m"
attr unit m
par VitalGuardNet.visualizer.canvasVisualizer.sceneVisualizer sceneMaxX "nan m"
attr unit m
par VitalGuardNet.visualizer.canvasVisualizer.sceneVisualizer sceneMaxY "nan m"
attr unit m
par VitalGuardNet.visualizer.canvasVisualizer.sceneVisualizer sceneMaxZ "nan m"
attr unit m
par VitalGuardNet.visualizer.canvasVisualizer.sceneVisualizer zIndex 0
par VitalGuardNet.visualizer.canvasVisualizer.sceneVisualizer viewAngle "\"x right y down z out\""
attr mutable ""
par VitalGuardNet.visualizer.canvasVisualizer.sceneVisualizer viewScale "\"1 1\""
attr mutable ""
par VitalGuardNet.visualizer.canvasVisualizer.sceneVisualizer viewTranslation "\"0 0\""
attr mutable ""
par VitalGuardNet.visualizer.canvasVisualizer.sceneVisualizer descriptionFigure "\"\""
par VitalGuardNet.visualizer.canvasVisualizer.physicalEnvironmentVisualizer typename "\"inet.visualizer.canvas.environment.PhysicalEnvironmentCanvasVisualizer\""
par VitalGuardNet.visualizer.canvasVisualizer.physicalEnvironmentVisualizer visualizationTargetModule "\"^.^.^\""
par VitalGuardNet.visualizer.canvasVisualizer.physicalEnvironmentVisualizer visualizationSubjectModule "\"^.^.^\""
par VitalGuardNet.visualizer.canvasVisualizer.physicalEnvironmentVisualizer tags "\"\""
par VitalGuardNet.visualizer.canvasVisualizer.physicalEnvironmentVisualizer physicalEnvironmentModule "\"physicalEnvironment\""
par VitalGuardNet.visualizer.canvasVisualizer.physicalEnvironmentVisualizer displayObjects true
par VitalGuardNet.visualizer.canvasVisualizer.physicalEnvironmentVisualizer zIndex 0
par VitalGuardNet.visualizer.canvasVisualizer.networkNodeVisualizer typename "\"inet.visualizer.canvas.scene.NetworkNodeCanvasVisualizer\""
par VitalGuardNet.visualizer.canvasVisualizer.networkNodeVisualizer visualizationTargetModule "\"^.^.^\""
par VitalGuardNet.visualizer.canvasVisualizer.networkNodeVisualizer visualizationSubjectModule "\"^.^.^\""
par VitalGuardNet.visualizer.canvasVisualizer.networkNodeVisualizer tags "\"\""
par VitalGuardNet.visualizer.canvasVisualizer.networkNodeVisualizer nodeFilter "\"*\""
attr mutable ""
par VitalGuardNet.visualizer.canvasVisualizer.networkNodeVisualizer annotationSpacing 4
par VitalGuardNet.visualizer.canvasVisualizer.networkNodeVisualizer placementPenalty 10
par VitalGuardNet.visualizer.canvasVisualizer.networkNodeVisualizer zIndex 0
par VitalGuardNet.visualizer.canvasVisualizer.networkConnectionVisualizer typename "\"inet.visualizer.canvas.scene.NetworkConnectionCanvasVisualizer\""
par VitalGuardNet.visualizer.canvasVisualizer.networkConnectionVisualizer visualizationTargetModule "\"^.^.^\""
par VitalGuardNet.visualizer.canvasVisualizer.networkConnectionVisualizer visualizationSubjectModule "\"^.^.^\""
par VitalGuardNet.visualizer.canvasVisualizer.networkConnectionVisualizer tags "\"\""
par VitalGuardNet.visualizer.canvasVisualizer.networkConnectionVisualizer displayNetworkConnections true
par VitalGuardNet.visualizer.canvasVisualizer.networkConnectionVisualizer nodeFilter "\"\""
attr mutable ""
par VitalGuardNet.visualizer.canvasVisualizer.networkConnectionVisualizer lineColor "\"black\""
par VitalGuardNet.visualizer.canvasVisualizer.networkConnectionVisualizer lineStyle "\"solid\""
par VitalGuardNet.visualizer.canvasVisualizer.networkConnectionVisualizer lineWidth 1
par VitalGuardNet.visualizer.canvasVisualizer.networkConnectionVisualizer zIndex 0
par VitalGuardNet.visualizer.canvasVisualizer.mobilityVisualizer typename "\"inet.visualizer.canvas.mobility.MobilityCanvasVisualizer\""
par VitalGuardNet.visualizer.canvasVisualizer.mobilityVisualizer visualizationTargetModule "\"^.^.^\""
par VitalGuardNet.visualizer.canvasVisualizer.mobilityVisualizer visualizationSubjectModule "\"^.^.^\""
par VitalGuardNet.visualizer.canvasVisualizer.mobilityVisualizer tags "\"\""
par VitalGuardNet.visualizer.canvasVisualizer.mobilityVisualizer networkNodeVisualizerModule "\"^.networkNodeVisualizer\""
par VitalGuardNet.visualizer.canvasVisualizer.mobilityVisualizer displayMobility true
par VitalGuardNet.visualizer.canvasVisualizer.mobilityVisualizer animationSpeed 0
par VitalGuardNet.visualizer.canvasVisualizer.mobilityVisualizer moduleFilter "\"**.mobility\""
attr mutable ""
par VitalGuardNet.visualizer.canvasVisualizer.mobilityVisualizer displayPositions false
par VitalGuardNet.visualizer.canvasVisualizer.mobilityVisualizer positionCircleRadius 4
par VitalGuardNet.visualizer.canvasVisualizer.mobilityVisualizer positionCircleLineWidth 1
par VitalGuardNet.visualizer.canvasVisualizer.mobilityVisualizer positionCircleLineColor "\"dark\""
par VitalGuardNet.visualizer.canvasVisualizer.mobilityVisualizer positionCircleFillColor "\"dark\""
par VitalGuardNet.visualizer.canvasVisualizer.mobilityVisualizer displayOrientations false
par VitalGuardNet.visualizer.canvasVisualizer.mobilityVisualizer orientationPieRadius 32
par VitalGuardNet.visualizer.canvasVisualizer.mobilityVisualizer orientationPieSize 0.2
par VitalGuardNet.visualizer.canvasVisualizer.mobilityVisualizer orientationPieOpacity 0.25
par VitalGuardNet.visualizer.canvasVisualizer.mobilityVisualizer orientationLineColor "\"black\""
par VitalGuardNet.visualizer.canvasVisualizer.mobilityVisualizer orientationLineStyle "\"solid\""
par VitalGuardNet.visualizer.canvasVisualizer.mobilityVisualizer orientationLineWidth 1
par VitalGuardNet.visualizer.canvasVisualizer.mobilityVisualizer orientationFillColor "\"blue\""
par VitalGuardNet.visualizer.canvasVisualizer.mobilityVisualizer displayVelocities false
par VitalGuardNet.visualizer.canvasVisualizer.mobilityVisualizer velocityArrowScale 1
par VitalGuardNet.visualizer.canvasVisualizer.mobilityVisualizer velocityLineColor "\"black\""
par VitalGuardNet.visualizer.canvasVisualizer.mobilityVisualizer velocityLineStyle "\"solid\""
par VitalGuardNet.visualizer.canvasVisualizer.mobilityVisualizer velocityLineWidth 1
par VitalGuardNet.visualizer.canvasVisualizer.mobilityVisualizer displayMovementTrails false
par VitalGuardNet.visualizer.canvasVisualizer.mobilityVisualizer movementTrailLineColor "\"dark\""
par VitalGuardNet.visualizer.canvasVisualizer.mobilityVisualizer movementTrailLineStyle "\"solid\""
par VitalGuardNet.visualizer.canvasVisualizer.mobilityVisualizer movementTrailLineWidth 1
par VitalGuardNet.visualizer.canvasVisualizer.mobilityVisualizer trailLength 100
par VitalGuardNet.visualizer.canvasVisualizer.mobilityVisualizer zIndex 0
par VitalGuardNet.visualizer.canvasVisualizer.statisticVisualizer typename "\"inet.visualizer.canvas.common.StatisticCanvasVisualizer\""
par VitalGuardNet.visualizer.canvasVisualizer.statisticVisualizer visualizationTargetModule "\"^.^.^\""
par VitalGuardNet.visualizer.canvasVisualizer.statisticVisualizer visualizationSubjectModule "\"^.^.^\""
par VitalGuardNet.visualizer.canvasVisualizer.statisticVisualizer tags "\"\""
par VitalGuardNet.visualizer.canvasVisualizer.statisticVisualizer networkNodeVisualizerModule "\"^.networkNodeVisualizer\""
par VitalGuardNet.visualizer.canvasVisualizer.statisticVisualizer displayStatistics true
par VitalGuardNet.visualizer.canvasVisualizer.statisticVisualizer signalName "\"\""
par VitalGuardNet.visualizer.canvasVisualizer.statisticVisualizer statisticName "\"\""
par VitalGuardNet.visualizer.canvasVisualizer.statisticVisualizer statisticUnit "\"\""
par VitalGuardNet.visualizer.canvasVisualizer.statisticVisualizer statisticExpression "\"\""
par VitalGuardNet.visualizer.canvasVisualizer.statisticVisualizer sourceFilter "\"**\""
attr mutable ""
par VitalGuardNet.visualizer.canvasVisualizer.statisticVisualizer format "\"%n: %v %u\""
attr mutable ""
par VitalGuardNet.visualizer.canvasVisualizer.statisticVisualizer unit "\"\""
par VitalGuardNet.visualizer.canvasVisualizer.statisticVisualizer font "\"<default>\""
par VitalGuardNet.visualizer.canvasVisualizer.statisticVisualizer textColor "\"black\""
par VitalGuardNet.visualizer.canvasVisualizer.statisticVisualizer backgroundColor "\"white\""
par VitalGuardNet.visualizer.canvasVisualizer.statisticVisualizer opacity 1
par VitalGuardNet.visualizer.canvasVisualizer.statisticVisualizer placementHint "\"top\""
par VitalGuardNet.visualizer.canvasVisualizer.statisticVisualizer placementPriority 0
par VitalGuardNet.visualizer.canvasVisualizer.statisticVisualizer zIndex 10
par VitalGuardNet.visualizer.canvasVisualizer.statisticVisualizer propertyName "\"\""
par VitalGuardNet.visualizer.canvasVisualizer.statisticVisualizer propertyIndex "\"\""
par VitalGuardNet.visualizer.canvasVisualizer.infoVisualizer typename "\"inet.visualizer.canvas.common.InfoCanvasVisualizer\""
par VitalGuardNet.visualizer.canvasVisualizer.infoVisualizer visualizationTargetModule "\"^.^.^\""
par VitalGuardNet.visualizer.canvasVisualizer.infoVisualizer visualizationSubjectModule "\"^.^.^\""
par VitalGuardNet.visualizer.canvasVisualizer.infoVisualizer tags "\"\""
par VitalGuardNet.visualizer.canvasVisualizer.infoVisualizer networkNodeVisualizerModule "\"^.networkNodeVisualizer\""
par VitalGuardNet.visualizer.canvasVisualizer.infoVisualizer displayInfos true
par VitalGuardNet.visualizer.canvasVisualizer.infoVisualizer modules "\"\""
attr mutable ""
par VitalGuardNet.visualizer.canvasVisualizer.infoVisualizer format "\"%t\""
attr mutable ""
par VitalGuardNet.visualizer.canvasVisualizer.infoVisualizer font "\"<default>\""
par VitalGuardNet.visualizer.canvasVisualizer.infoVisualizer textColor "\"black\""
par VitalGuardNet.visualizer.canvasVisualizer.infoVisualizer backgroundColor "\"white\""
par VitalGuardNet.visualizer.canvasVisualizer.infoVisualizer opacity 1
par VitalGuardNet.visualizer.canvasVisualizer.infoVisualizer placementHint "\"top\""
par VitalGuardNet.visualizer.canvasVisualizer.infoVisualizer placementPriority 0
par VitalGuardNet.visualizer.canvasVisualizer.infoVisualizer zIndex 10
par VitalGuardNet.visualizer.canvasVisualizer.energyStorageVisualizer typename "\"inet.visualizer.canvas.power.EnergyStorageCanvasVisualizer\""
par VitalGuardNet.visualizer.canvasVisualizer.energyStorageVisualizer visualizationTargetModule "\"^.^.^\""
par VitalGuardNet.visualizer.canvasVisualizer.energyStorageVisualizer visualizationSubjectModule "\"^.^.^\""
par VitalGuardNet.visualizer.canvasVisualizer.energyStorageVisualizer tags "\"\""
par VitalGuardNet.visualizer.canvasVisualizer.energyStorageVisualizer networkNodeVisualizerModule "\"^.networkNodeVisualizer\""
par VitalGuardNet.visualizer.canvasVisualizer.energyStorageVisualizer displayEnergyStorages false
par VitalGuardNet.visualizer.canvasVisualizer.energyStorageVisualizer energyStorageFilter "\"**\""
par VitalGuardNet.visualizer.canvasVisualizer.energyStorageVisualizer color "\"green\""
par VitalGuardNet.visualizer.canvasVisualizer.energyStorageVisualizer width 8
par VitalGuardNet.visualizer.canvasVisualizer.energyStorageVisualizer height 24
par VitalGuardNet.visualizer.canvasVisualizer.energyStorageVisualizer spacing 2
par VitalGuardNet.visualizer.canvasVisualizer.energyStorageVisualizer placementHint "\"right\""
par VitalGuardNet.visualizer.canvasVisualizer.energyStorageVisualizer placementPriority 0
par VitalGuardNet.visualizer.canvasVisualizer.energyStorageVisualizer zIndex 10
par VitalGuardNet.visualizer.canvasVisualizer.mediumVisualizer typename "\"inet.visualizer.canvas.physicallayer.MediumCanvasVisualizer\""
par VitalGuardNet.visualizer.canvasVisualizer.mediumVisualizer visualizationTargetModule "\"^.^.^\""
par VitalGuardNet.visualizer.canvasVisualizer.mediumVisualizer visualizationSubjectModule "\"^.^.^\""
par VitalGuardNet.visualizer.canvasVisualizer.mediumVisualizer tags "\"\""
par VitalGuardNet.visualizer.canvasVisualizer.mediumVisualizer mediumModule "\"radioMedium\""
par VitalGuardNet.visualizer.canvasVisualizer.mediumVisualizer networkNodeVisualizerModule "\"^.networkNodeVisualizer\""
par VitalGuardNet.visualizer.canvasVisualizer.mediumVisualizer nodeFilter "\"*\""
attr mutable ""
par VitalGuardNet.visualizer.canvasVisualizer.mediumVisualizer interfaceFilter "\"*\""
attr mutable ""
par VitalGuardNet.visualizer.canvasVisualizer.mediumVisualizer packetFilter "(omnetpp::cValueHolder)holder: \"*\""
attr mutable ""
par VitalGuardNet.visualizer.canvasVisualizer.mediumVisualizer displaySignals true
par VitalGuardNet.visualizer.canvasVisualizer.mediumVisualizer signalColor "\"dark\""
par VitalGuardNet.visualizer.canvasVisualizer.mediumVisualizer signalPropagationAnimationSpeed "nan "
attr mutable ""
par VitalGuardNet.visualizer.canvasVisualizer.mediumVisualizer signalPropagationAnimationTime 1s
attr unit s
par VitalGuardNet.visualizer.canvasVisualizer.mediumVisualizer signalPropagationAdditionalTime 0s
attr unit s
par VitalGuardNet.visualizer.canvasVisualizer.mediumVisualizer signalTransmissionAnimationSpeed "nan "
attr mutable ""
par VitalGuardNet.visualizer.canvasVisualizer.mediumVisualizer signalTransmissionAnimationTime 1s
attr unit s
par VitalGuardNet.visualizer.canvasVisualizer.mediumVisualizer signalAnimationSpeedChangeTimeMode "\"realTime\""
attr enum realTime,animationTime,simulationTime
par VitalGuardNet.visualizer.canvasVisualizer.mediumVisualizer signalAnimationSpeedChangeTime 1s
attr unit s
par VitalGuardNet.visualizer.canvasVisualizer.mediumVisualizer displaySignalDepartures true
par VitalGuardNet.visualizer.canvasVisualizer.mediumVisualizer signalDepartureImage "\"misc/signal_departure.png\""
par VitalGuardNet.visualizer.canvasVisualizer.mediumVisualizer signalDeparturePlacementHint "\"topCenter\""
par VitalGuardNet.visualizer.canvasVisualizer.mediumVisualizer signalDeparturePlacementPriority 1
par VitalGuardNet.visualizer.canvasVisualizer.mediumVisualizer displaySignalArrivals true
par VitalGuardNet.visualizer.canvasVisualizer.mediumVisualizer signalArrivalImage "\"misc/signal_arrival.png\""
par VitalGuardNet.visualizer.canvasVisualizer.mediumVisualizer signalArrivalPlacementHint "\"topCenter\""
par VitalGuardNet.visualizer.canvasVisualizer.mediumVisualizer signalArrivalPlacementPriority -1
par VitalGuardNet.visualizer.canvasVisualizer.mediumVisualizer displayCommunicationRanges false
par VitalGuardNet.visualizer.canvasVisualizer.mediumVisualizer communicationRangeLineColor "\"blue\""
par VitalGuardNet.visualizer.canvasVisualizer.mediumVisualizer communicationRangeLineStyle "\"solid\""
par VitalGuardNet.visualizer.canvasVisualizer.mediumVisualizer communicationRangeLineWidth 1
par VitalGuardNet.visualizer.canvasVisualizer.mediumVisualizer displayInterferenceRanges false
par VitalGuardNet.visualizer.canvasVisualizer.mediumVisualizer interferenceRangeLineColor "\"gray\""
par VitalGuardNet.visualizer.canvasVisualizer.mediumVisualizer interferenceRangeLineStyle "\"solid\""
par VitalGuardNet.visualizer.canvasVisualizer.mediumVisualizer interferenceRangeLineWidth 1
par VitalGuardNet.visualizer.canvasVisualizer.mediumVisualizer autoPowerAxis true
par VitalGuardNet.visualizer.canvasVisualizer.mediumVisualizer signalMinPower "inf dBmW"
attr unit dBmW
par VitalGuardNet.visualizer.canvasVisualizer.mediumVisualizer signalMaxPower 0dBmW
attr unit dBmW
par VitalGuardNet.visualizer.canvasVisualizer.mediumVisualizer signalMinPowerDensity "inf dBmWpMHz"
attr unit dBmWpMHz
par VitalGuardNet.visualizer.canvasVisualizer.mediumVisualizer signalMaxPowerDensity "-inf dBmWpMHz"
attr unit dBmWpMHz
par VitalGuardNet.visualizer.canvasVisualizer.mediumVisualizer autoTimeAxis true
par VitalGuardNet.visualizer.canvasVisualizer.mediumVisualizer signalMinTime 0s
attr unit s
par VitalGuardNet.visualizer.canvasVisualizer.mediumVisualizer signalMaxTime 0s
attr unit s
par VitalGuardNet.visualizer.canvasVisualizer.mediumVisualizer autoFrequencyAxis true
par VitalGuardNet.visualizer.canvasVisualizer.mediumVisualizer signalMinFrequency "inf Hz"
attr unit Hz
par VitalGuardNet.visualizer.canvasVisualizer.mediumVisualizer signalMaxFrequency "-inf Hz"
attr unit Hz
par VitalGuardNet.visualizer.canvasVisualizer.mediumVisualizer displayMainPowerDensityMap false
par VitalGuardNet.visualizer.canvasVisualizer.mediumVisualizer mainPowerDensityMapPixmapDensity 1
par VitalGuardNet.visualizer.canvasVisualizer.mediumVisualizer mainPowerDensityMapMinX 0
par VitalGuardNet.visualizer.canvasVisualizer.mediumVisualizer mainPowerDensityMapMaxX "nan "
par VitalGuardNet.visualizer.canvasVisualizer.mediumVisualizer mainPowerDensityMapMinY 0
par VitalGuardNet.visualizer.canvasVisualizer.mediumVisualizer mainPowerDensityMapMaxY "nan "
par VitalGuardNet.visualizer.canvasVisualizer.mediumVisualizer mainPowerDensityMapZ 0
par VitalGuardNet.visualizer.canvasVisualizer.mediumVisualizer mainPowerDensityMapFigureXTickCount 3
par VitalGuardNet.visualizer.canvasVisualizer.mediumVisualizer mainPowerDensityMapFigureYTickCount 3
par VitalGuardNet.visualizer.canvasVisualizer.mediumVisualizer displayPowerDensityMaps false
par VitalGuardNet.visualizer.canvasVisualizer.mediumVisualizer powerDensityMapMode "\"auto\""
attr enum total,signal,auto
par VitalGuardNet.visualizer.canvasVisualizer.mediumVisualizer powerDensityMapPixelMode "\"mean\""
attr enum sample,partition,mean
par VitalGuardNet.visualizer.canvasVisualizer.mediumVisualizer powerDensityMapApproximationSize 10
par VitalGuardNet.visualizer.canvasVisualizer.mediumVisualizer powerDensityMapCenterFrequency "nan Hz"
attr mutable ""
attr unit Hz
par VitalGuardNet.visualizer.canvasVisualizer.mediumVisualizer powerDensityMapBandwidth 0Hz
attr mutable ""
attr unit Hz
par VitalGuardNet.visualizer.canvasVisualizer.mediumVisualizer powerDensityMapFigureWidth 200
par VitalGuardNet.visualizer.canvasVisualizer.mediumVisualizer powerDensityMapFigureHeight 120
par VitalGuardNet.visualizer.canvasVisualizer.mediumVisualizer powerDensityMapPixmapWidth 200
par VitalGuardNet.visualizer.canvasVisualizer.mediumVisualizer powerDensityMapPixmapHeight 120
par VitalGuardNet.visualizer.canvasVisualizer.mediumVisualizer powerDensityMapZ 0
par VitalGuardNet.visualizer.canvasVisualizer.mediumVisualizer powerDensityMapFigureXTickCount 3
par VitalGuardNet.visualizer.canvasVisualizer.mediumVisualizer powerDensityMapFigureYTickCount 3
par VitalGuardNet.visualizer.canvasVisualizer.mediumVisualizer displaySpectrums false
par VitalGuardNet.visualizer.canvasVisualizer.mediumVisualizer spectrumMode "\"auto\""
attr enum total,signal,auto
par VitalGuardNet.visualizer.canvasVisualizer.mediumVisualizer spectrumFigureWidth 200
par VitalGuardNet.visualizer.canvasVisualizer.mediumVisualizer spectrumFigureHeight 120
par VitalGuardNet.visualizer.canvasVisualizer.mediumVisualizer spectrumFigureXTickCount 3
par VitalGuardNet.visualizer.canvasVisualizer.mediumVisualizer spectrumFigureYTickCount 5
par VitalGuardNet.visualizer.canvasVisualizer.mediumVisualizer spectrumFigureInterpolationSize 5
par VitalGuardNet.visualizer.canvasVisualizer.mediumVisualizer spectrumPlacementHint "\"bottomCenter\""
par VitalGuardNet.visualizer.canvasVisualizer.mediumVisualizer spectrumPlacementPriority -1
par VitalGuardNet.visualizer.canvasVisualizer.mediumVisualizer displaySpectrograms false
par VitalGuardNet.visualizer.canvasVisualizer.mediumVisualizer spectrogramMode "\"auto\""
attr enum total,signal,auto
par VitalGuardNet.visualizer.canvasVisualizer.mediumVisualizer spectrogramPixelMode "\"mean\""
attr enum sample,partition,mean
par VitalGuardNet.visualizer.canvasVisualizer.mediumVisualizer spectrogramFigureWidth 200
par VitalGuardNet.visualizer.canvasVisualizer.mediumVisualizer spectrogramFigureHeight 120
par VitalGuardNet.visualizer.canvasVisualizer.mediumVisualizer spectrogramPixmapWidth 200
par VitalGuardNet.visualizer.canvasVisualizer.mediumVisualizer spectrogramPixmapHeight 120
par VitalGuardNet.visualizer.canvasVisualizer.mediumVisualizer spectrogramFigureXTickCount 3
par VitalGuardNet.visualizer.canvasVisualizer.mediumVisualizer spectrogramFigureYTickCount 5
par VitalGuardNet.visualizer.canvasVisualizer.mediumVisualizer spectrogramPlacementHint "\"bottomCenter\""
par VitalGuardNet.visualizer.canvasVisualizer.mediumVisualizer spectrogramPlacementPriority -1
par VitalGuardNet.visualizer.canvasVisualizer.mediumVisualizer zIndex 0
par VitalGuardNet.visualizer.canvasVisualizer.mediumVisualizer signalShape "\"ring\""
attr enum ring,sphere
par VitalGuardNet.visualizer.canvasVisualizer.mediumVisualizer signalOpacity 0.5
par VitalGuardNet.visualizer.canvasVisualizer.mediumVisualizer signalRingCount 20
par VitalGuardNet.visualizer.canvasVisualizer.mediumVisualizer signalRingSize 50m
attr unit m
par VitalGuardNet.visualizer.canvasVisualizer.mediumVisualizer signalFadingDistance 50m
attr unit m
par VitalGuardNet.visualizer.canvasVisualizer.mediumVisualizer signalFadingFactor 1.2
par VitalGuardNet.visualizer.canvasVisualizer.mediumVisualizer signalWaveCount 20
par VitalGuardNet.visualizer.canvasVisualizer.mediumVisualizer signalWaveLength 50m
attr unit m
par VitalGuardNet.visualizer.canvasVisualizer.mediumVisualizer signalWaveWidth 10m
attr unit m
par VitalGuardNet.visualizer.canvasVisualizer.mediumVisualizer signalWaveFadingAnimationSpeedFactor 1
par VitalGuardNet.visualizer.canvasVisualizer.mediumVisualizer displayCommunicationHeat false
par VitalGuardNet.visualizer.canvasVisualizer.obstacleLossVisualizer typename "\"inet.visualizer.canvas.physicallayer.TracingObstacleLossCanvasVisualizer\""
par VitalGuardNet.visualizer.canvasVisualizer.obstacleLossVisualizer visualizationTargetModule "\"^.^.^\""
par VitalGuardNet.visualizer.canvasVisualizer.obstacleLossVisualizer visualizationSubjectModule "\"^.^.^\""
par VitalGuardNet.visualizer.canvasVisualizer.obstacleLossVisualizer tags "\"\""
par VitalGuardNet.visualizer.canvasVisualizer.obstacleLossVisualizer displayIntersections false
par VitalGuardNet.visualizer.canvasVisualizer.obstacleLossVisualizer intersectionLineColor "\"red\""
par VitalGuardNet.visualizer.canvasVisualizer.obstacleLossVisualizer intersectionLineStyle "\"solid\""
par VitalGuardNet.visualizer.canvasVisualizer.obstacleLossVisualizer intersectionLineWidth 1
par VitalGuardNet.visualizer.canvasVisualizer.obstacleLossVisualizer displayFaceNormalVectors false
par VitalGuardNet.visualizer.canvasVisualizer.obstacleLossVisualizer faceNormalLineColor "\"grey\""
par VitalGuardNet.visualizer.canvasVisualizer.obstacleLossVisualizer faceNormalLineStyle "\"solid\""
par VitalGuardNet.visualizer.canvasVisualizer.obstacleLossVisualizer faceNormalLineWidth 1
par VitalGuardNet.visualizer.canvasVisualizer.obstacleLossVisualizer fadeOutMode "\"realTime\""
attr enum realTime,animationTime,simulationTime
par VitalGuardNet.visualizer.canvasVisualizer.obstacleLossVisualizer fadeOutTime 1s
attr unit s
par VitalGuardNet.visualizer.canvasVisualizer.obstacleLossVisualizer fadeOutAnimationSpeed 0
par VitalGuardNet.visualizer.canvasVisualizer.obstacleLossVisualizer zIndex 0
par VitalGuardNet.visualizer.canvasVisualizer.packetDropVisualizer typename "\"inet.visualizer.canvas.common.PacketDropCanvasVisualizer\""
par VitalGuardNet.visualizer.canvasVisualizer.packetDropVisualizer visualizationTargetModule "\"^.^.^\""
par VitalGuardNet.visualizer.canvasVisualizer.packetDropVisualizer visualizationSubjectModule "\"^.^.^\""
par VitalGuardNet.visualizer.canvasVisualizer.packetDropVisualizer tags "\"\""
par VitalGuardNet.visualizer.canvasVisualizer.packetDropVisualizer displayPacketDrops false
par VitalGuardNet.visualizer.canvasVisualizer.packetDropVisualizer nodeFilter "\"*\""
attr mutable ""
par VitalGuardNet.visualizer.canvasVisualizer.packetDropVisualizer interfaceFilter "\"*\""
attr mutable ""
par VitalGuardNet.visualizer.canvasVisualizer.packetDropVisualizer packetFilter "(omnetpp::cValueHolder)holder: \"*\""
attr mutable ""
par VitalGuardNet.visualizer.canvasVisualizer.packetDropVisualizer detailsFilter "\"*\""
attr mutable ""
par VitalGuardNet.visualizer.canvasVisualizer.packetDropVisualizer icon "\"msg/packet_s\""
par VitalGuardNet.visualizer.canvasVisualizer.packetDropVisualizer iconTintAmount 1
par VitalGuardNet.visualizer.canvasVisualizer.packetDropVisualizer iconTintColor "\"dark\""
par VitalGuardNet.visualizer.canvasVisualizer.packetDropVisualizer labelFormat "\"%n\""
attr mutable ""
par VitalGuardNet.visualizer.canvasVisualizer.packetDropVisualizer labelFont "\"<default>\""
par VitalGuardNet.visualizer.canvasVisualizer.packetDropVisualizer labelColor "\"black\""
par VitalGuardNet.visualizer.canvasVisualizer.packetDropVisualizer fadeOutMode "\"realTime\""
attr enum realTime,animationTime,simulationTime
par VitalGuardNet.visualizer.canvasVisualizer.packetDropVisualizer fadeOutTime 1s
attr unit s
par VitalGuardNet.visualizer.canvasVisualizer.packetDropVisualizer fadeOutAnimationSpeed 0
par VitalGuardNet.visualizer.canvasVisualizer.packetDropVisualizer zIndex 10
par VitalGuardNet.visualizer.canvasVisualizer.packetDropVisualizer dx 32
par VitalGuardNet.visualizer.canvasVisualizer.packetDropVisualizer dy 64
par VitalGuardNet.visualizer.canvasVisualizer.packetFlowVisualizer typename "\"inet.visualizer.canvas.flow.PacketFlowCanvasVisualizer\""
par VitalGuardNet.visualizer.canvasVisualizer.packetFlowVisualizer visualizationTargetModule "\"^.^.^\""
par VitalGuardNet.visualizer.canvasVisualizer.packetFlowVisualizer visualizationSubjectModule "\"^.^.^\""
par VitalGuardNet.visualizer.canvasVisualizer.packetFlowVisualizer tags "\"\""
par VitalGuardNet.visualizer.canvasVisualizer.packetFlowVisualizer displayRoutes false
par VitalGuardNet.visualizer.canvasVisualizer.packetFlowVisualizer startPathSignal "\"packetFlowStarted\""
par VitalGuardNet.visualizer.canvasVisualizer.packetFlowVisualizer extendPathSignal "\"packetReceivedFromLower\""
par VitalGuardNet.visualizer.canvasVisualizer.packetFlowVisualizer endPathSignal "\"packetFlowEnded\""
par VitalGuardNet.visualizer.canvasVisualizer.packetFlowVisualizer nodeFilter "\"*\""
attr mutable ""
par VitalGuardNet.visualizer.canvasVisualizer.packetFlowVisualizer packetFilter "(omnetpp::cValueHolder)holder: \"*\""
attr mutable ""
par VitalGuardNet.visualizer.canvasVisualizer.packetFlowVisualizer lineColor "\"dark\""
par VitalGuardNet.visualizer.canvasVisualizer.packetFlowVisualizer lineStyle "\"dashed\""
par VitalGuardNet.visualizer.canvasVisualizer.packetFlowVisualizer lineWidth 3
par VitalGuardNet.visualizer.canvasVisualizer.packetFlowVisualizer lineSmooth false
par VitalGuardNet.visualizer.canvasVisualizer.packetFlowVisualizer lineShift 16
par VitalGuardNet.visualizer.canvasVisualizer.packetFlowVisualizer lineShiftMode "\"normal\""
par VitalGuardNet.visualizer.canvasVisualizer.packetFlowVisualizer lineContactSpacing 3
par VitalGuardNet.visualizer.canvasVisualizer.packetFlowVisualizer lineContactMode "\"rectangular\""
attr enum circular,rectangular
par VitalGuardNet.visualizer.canvasVisualizer.packetFlowVisualizer labelFormat "\"%L %p pk (%l)\""
par VitalGuardNet.visualizer.canvasVisualizer.packetFlowVisualizer labelFont "\"<default>, 8px\""
par VitalGuardNet.visualizer.canvasVisualizer.packetFlowVisualizer labelColor "\"\""
par VitalGuardNet.visualizer.canvasVisualizer.packetFlowVisualizer fadeOutMode "\"realTime\""
attr enum realTime,animationTime,simulationTime
par VitalGuardNet.visualizer.canvasVisualizer.packetFlowVisualizer fadeOutTime 0s
attr unit s
par VitalGuardNet.visualizer.canvasVisualizer.packetFlowVisualizer fadeOutAnimationSpeed 0
par VitalGuardNet.visualizer.canvasVisualizer.packetFlowVisualizer zIndex 4
par VitalGuardNet.visualizer.canvasVisualizer.queueVisualizer typename "\"inet.visualizer.canvas.common.QueueCanvasVisualizer\""
par VitalGuardNet.visualizer.canvasVisualizer.queueVisualizer visualizationTargetModule "\"^.^.^\""
par VitalGuardNet.visualizer.canvasVisualizer.queueVisualizer visualizationSubjectModule "\"^.^.^\""
par VitalGuardNet.visualizer.canvasVisualizer.queueVisualizer tags "\"\""
par VitalGuardNet.visualizer.canvasVisualizer.queueVisualizer networkNodeVisualizerModule "\"^.networkNodeVisualizer\""
par VitalGuardNet.visualizer.canvasVisualizer.queueVisualizer displayQueues false
par VitalGuardNet.visualizer.canvasVisualizer.queueVisualizer queueFilter "\"**\""
par VitalGuardNet.visualizer.canvasVisualizer.queueVisualizer color "\"blue\""
par VitalGuardNet.visualizer.canvasVisualizer.queueVisualizer width 8
par VitalGuardNet.visualizer.canvasVisualizer.queueVisualizer height 24
par VitalGuardNet.visualizer.canvasVisualizer.queueVisualizer spacing 2
par VitalGuardNet.visualizer.canvasVisualizer.queueVisualizer placementHint "\"right\""
par VitalGuardNet.visualizer.canvasVisualizer.queueVisualizer placementPriority 0
par VitalGuardNet.visualizer.canvasVisualizer.queueVisualizer zIndex 10
par VitalGuardNet.visualizer.canvasVisualizer.gateScheduleVisualizer typename "\"inet.visualizer.canvas.common.GateScheduleCanvasVisualizer\""
par VitalGuardNet.visualizer.canvasVisualizer.gateScheduleVisualizer visualizationTargetModule "\"^.^.^\""
par VitalGuardNet.visualizer.canvasVisualizer.gateScheduleVisualizer visualizationSubjectModule "\"^.^.^\""
par VitalGuardNet.visualizer.canvasVisualizer.gateScheduleVisualizer tags "\"\""
par VitalGuardNet.visualizer.canvasVisualizer.gateScheduleVisualizer networkNodeVisualizerModule "\"^.networkNodeVisualizer\""
par VitalGuardNet.visualizer.canvasVisualizer.gateScheduleVisualizer displayGateSchedules false
par VitalGuardNet.visualizer.canvasVisualizer.gateScheduleVisualizer labelFormat "\"%i %D\""
par VitalGuardNet.visualizer.canvasVisualizer.gateScheduleVisualizer gateFilter "\"**\""
par VitalGuardNet.visualizer.canvasVisualizer.gateScheduleVisualizer width 100
par VitalGuardNet.visualizer.canvasVisualizer.gateScheduleVisualizer height 8
par VitalGuardNet.visualizer.canvasVisualizer.gateScheduleVisualizer spacing 2
par VitalGuardNet.visualizer.canvasVisualizer.gateScheduleVisualizer placementHint "\"right\""
par VitalGuardNet.visualizer.canvasVisualizer.gateScheduleVisualizer placementPriority 0
par VitalGuardNet.visualizer.canvasVisualizer.gateScheduleVisualizer displayDuration 0s
attr mutable ""
attr unit s
par VitalGuardNet.visualizer.canvasVisualizer.gateScheduleVisualizer currentTimePosition 50
par VitalGuardNet.visualizer.canvasVisualizer.gateScheduleVisualizer zIndex 10
par VitalGuardNet.visualizer.canvasVisualizer.radioVisualizer typename "\"inet.visualizer.canvas.physicallayer.RadioCanvasVisualizer\""
par VitalGuardNet.visualizer.canvasVisualizer.radioVisualizer visualizationTargetModule "\"^.^.^\""
par VitalGuardNet.visualizer.canvasVisualizer.radioVisualizer visualizationSubjectModule "\"^.^.^\""
par VitalGuardNet.visualizer.canvasVisualizer.radioVisualizer tags "\"\""
par VitalGuardNet.visualizer.canvasVisualizer.radioVisualizer networkNodeVisualizerModule "\"^.networkNodeVisualizer\""
par VitalGuardNet.visualizer.canvasVisualizer.radioVisualizer displayRadios false
par VitalGuardNet.visualizer.canvasVisualizer.radioVisualizer displayRadioMode true
par VitalGuardNet.visualizer.canvasVisualizer.radioVisualizer displayReceptionState true
par VitalGuardNet.visualizer.canvasVisualizer.radioVisualizer displayTransmissionState true
par VitalGuardNet.visualizer.canvasVisualizer.radioVisualizer displayAntennaLobes false
par VitalGuardNet.visualizer.canvasVisualizer.radioVisualizer radioFilter "\"**\""
attr mutable ""
par VitalGuardNet.visualizer.canvasVisualizer.radioVisualizer radioModeImages "\"block/process_vs block/timer_vs block/wrx_vs block/wtx_vs block/wrxtx_vs block/cogwheel_vs\""
par VitalGuardNet.visualizer.canvasVisualizer.radioVisualizer receptionStateImages "\"- - misc/receiving misc/receiving\""
par VitalGuardNet.visualizer.canvasVisualizer.radioVisualizer transmissionStateImages "\"- - misc/transmitting\""
par VitalGuardNet.visualizer.canvasVisualizer.radioVisualizer width 16
par VitalGuardNet.visualizer.canvasVisualizer.radioVisualizer height 16
par VitalGuardNet.visualizer.canvasVisualizer.radioVisualizer placementHint "\"bottomRight\""
par VitalGuardNet.visualizer.canvasVisualizer.radioVisualizer placementPriority 0
par VitalGuardNet.visualizer.canvasVisualizer.radioVisualizer antennaLobeNormalize false
par VitalGuardNet.visualizer.canvasVisualizer.radioVisualizer antennaLobeRelativeLabels false
par VitalGuardNet.visualizer.canvasVisualizer.radioVisualizer antennaLobePlaneGlobal true
par VitalGuardNet.visualizer.canvasVisualizer.radioVisualizer antennaLobePlane "\"view\""
attr enum view,xy,xz,yz
par VitalGuardNet.visualizer.canvasVisualizer.radioVisualizer antennaLobeMode "\"logarithmic\""
attr enum logarithmic,linear
par VitalGuardNet.visualizer.canvasVisualizer.radioVisualizer antennaLobeLogarithmicBase 10
par VitalGuardNet.visualizer.canvasVisualizer.radioVisualizer antennaLobeLogarithmicScale 100
par VitalGuardNet.visualizer.canvasVisualizer.radioVisualizer antennaLobeRadius 100
par VitalGuardNet.visualizer.canvasVisualizer.radioVisualizer antennaLobeStep 10deg
attr unit deg
par VitalGuardNet.visualizer.canvasVisualizer.radioVisualizer antennaLobeOpacity 0.25
par VitalGuardNet.visualizer.canvasVisualizer.radioVisualizer antennaLobeLineSmooth true
par VitalGuardNet.visualizer.canvasVisualizer.radioVisualizer antennaLobeLineColor "\"black\""
par VitalGuardNet.visualizer.canvasVisualizer.radioVisualizer antennaLobeLineStyle "\"solid\""
par VitalGuardNet.visualizer.canvasVisualizer.radioVisualizer antennaLobeLineWidth 1
par VitalGuardNet.visualizer.canvasVisualizer.radioVisualizer antennaLobeFillColor "\"white\""
par VitalGuardNet.visualizer.canvasVisualizer.radioVisualizer zIndex 10
par VitalGuardNet.visualizer.canvasVisualizer.physicalLinkVisualizer typename "\"inet.visualizer.canvas.physicallayer.PhysicalLinkCanvasVisualizer\""
par VitalGuardNet.visualizer.canvasVisualizer.physicalLinkVisualizer visualizationTargetModule "\"^.^.^\""
par VitalGuardNet.visualizer.canvasVisualizer.physicalLinkVisualizer visualizationSubjectModule "\"^.^.^\""
par VitalGuardNet.visualizer.canvasVisualizer.physicalLinkVisualizer tags "\"\""
par VitalGuardNet.visualizer.canvasVisualizer.physicalLinkVisualizer displayLinks false
par VitalGuardNet.visualizer.canvasVisualizer.physicalLinkVisualizer activityLevel "\"service\""
attr enum service,peer,protocol
par VitalGuardNet.visualizer.canvasVisualizer.physicalLinkVisualizer nodeFilter "\"*\""
attr mutable ""
par VitalGuardNet.visualizer.canvasVisualizer.physicalLinkVisualizer interfaceFilter "\"*\""
attr mutable ""
par VitalGuardNet.visualizer.canvasVisualizer.physicalLinkVisualizer packetFilter "(omnetpp::cValueHolder)holder: \"*\""
attr mutable ""
par VitalGuardNet.visualizer.canvasVisualizer.physicalLinkVisualizer lineColor "\"olive\""
par VitalGuardNet.visualizer.canvasVisualizer.physicalLinkVisualizer lineStyle "\"dotted\""
par VitalGuardNet.visualizer.canvasVisualizer.physicalLinkVisualizer lineWidth 3
par VitalGuardNet.visualizer.canvasVisualizer.physicalLinkVisualizer lineShift 16
par VitalGuardNet.visualizer.canvasVisualizer.physicalLinkVisualizer lineShiftMode "\"normal\""
par VitalGuardNet.visualizer.canvasVisualizer.physicalLinkVisualizer lineContactSpacing 3
par VitalGuardNet.visualizer.canvasVisualizer.physicalLinkVisualizer lineContactMode "\"rectangular\""
attr enum circular,rectangular
par VitalGuardNet.visualizer.canvasVisualizer.physicalLinkVisualizer labelFormat "\"%n\""
par VitalGuardNet.visualizer.canvasVisualizer.physicalLinkVisualizer labelFont "\"<default>, 8px\""
par VitalGuardNet.visualizer.canvasVisualizer.physicalLinkVisualizer labelColor "\"olive\""
par VitalGuardNet.visualizer.canvasVisualizer.physicalLinkVisualizer fadeOutMode "\"realTime\""
attr enum realTime,animationTime,simulationTime
par VitalGuardNet.visualizer.canvasVisualizer.physicalLinkVisualizer fadeOutTime 1s
attr unit s
par VitalGuardNet.visualizer.canvasVisualizer.physicalLinkVisualizer fadeOutAnimationSpeed 0
par VitalGuardNet.visualizer.canvasVisualizer.physicalLinkVisualizer holdAnimationTime 0s
attr unit s
par VitalGuardNet.visualizer.canvasVisualizer.physicalLinkVisualizer zIndex 1
par VitalGuardNet.visualizer.canvasVisualizer.interfaceTableVisualizer typename "\"inet.visualizer.canvas.linklayer.InterfaceTableCanvasVisualizer\""
par VitalGuardNet.visualizer.canvasVisualizer.interfaceTableVisualizer visualizationTargetModule "\"^.^.^\""
par VitalGuardNet.visualizer.canvasVisualizer.interfaceTableVisualizer visualizationSubjectModule "\"^.^.^\""
par VitalGuardNet.visualizer.canvasVisualizer.interfaceTableVisualizer tags "\"\""
par VitalGuardNet.visualizer.canvasVisualizer.interfaceTableVisualizer networkNodeVisualizerModule "\"^.networkNodeVisualizer\""
par VitalGuardNet.visualizer.canvasVisualizer.interfaceTableVisualizer displayInterfaceTables false
par VitalGuardNet.visualizer.canvasVisualizer.interfaceTableVisualizer displayWiredInterfacesAtConnections true
par VitalGuardNet.visualizer.canvasVisualizer.interfaceTableVisualizer displayBackground false
par VitalGuardNet.visualizer.canvasVisualizer.interfaceTableVisualizer nodeFilter "\"*\""
attr mutable ""
par VitalGuardNet.visualizer.canvasVisualizer.interfaceTableVisualizer interfaceFilter "\"not(lo*)\""
attr mutable ""
par VitalGuardNet.visualizer.canvasVisualizer.interfaceTableVisualizer format "\"%N %\\\\%a%/%l\""
attr mutable ""
par VitalGuardNet.visualizer.canvasVisualizer.interfaceTableVisualizer placementHint "\"top\""
par VitalGuardNet.visualizer.canvasVisualizer.interfaceTableVisualizer placementPriority 0
par VitalGuardNet.visualizer.canvasVisualizer.interfaceTableVisualizer font "\"<default>\""
par VitalGuardNet.visualizer.canvasVisualizer.interfaceTableVisualizer textColor "\"#005030\""
par VitalGuardNet.visualizer.canvasVisualizer.interfaceTableVisualizer backgroundColor "\"white\""
par VitalGuardNet.visualizer.canvasVisualizer.interfaceTableVisualizer opacity 1
par VitalGuardNet.visualizer.canvasVisualizer.interfaceTableVisualizer zIndex 10
par VitalGuardNet.visualizer.canvasVisualizer.dataLinkVisualizer typename "\"inet.visualizer.canvas.linklayer.DataLinkCanvasVisualizer\""
par VitalGuardNet.visualizer.canvasVisualizer.dataLinkVisualizer visualizationTargetModule "\"^.^.^\""
par VitalGuardNet.visualizer.canvasVisualizer.dataLinkVisualizer visualizationSubjectModule "\"^.^.^\""
par VitalGuardNet.visualizer.canvasVisualizer.dataLinkVisualizer tags "\"\""
par VitalGuardNet.visualizer.canvasVisualizer.dataLinkVisualizer displayLinks false
par VitalGuardNet.visualizer.canvasVisualizer.dataLinkVisualizer activityLevel "\"service\""
attr enum service,peer,protocol
par VitalGuardNet.visualizer.canvasVisualizer.dataLinkVisualizer nodeFilter "\"*\""
attr mutable ""
par VitalGuardNet.visualizer.canvasVisualizer.dataLinkVisualizer interfaceFilter "\"*\""
attr mutable ""
par VitalGuardNet.visualizer.canvasVisualizer.dataLinkVisualizer packetFilter "(omnetpp::cValueHolder)holder: \"*\""
attr mutable ""
par VitalGuardNet.visualizer.canvasVisualizer.dataLinkVisualizer lineColor "\"darkcyan\""
par VitalGuardNet.visualizer.canvasVisualizer.dataLinkVisualizer lineStyle "\"solid\""
par VitalGuardNet.visualizer.canvasVisualizer.dataLinkVisualizer lineWidth 3
par VitalGuardNet.visualizer.canvasVisualizer.dataLinkVisualizer lineShift 16
par VitalGuardNet.visualizer.canvasVisualizer.dataLinkVisualizer lineShiftMode "\"normal\""
par VitalGuardNet.visualizer.canvasVisualizer.dataLinkVisualizer lineContactSpacing 3
par VitalGuardNet.visualizer.canvasVisualizer.dataLinkVisualizer lineContactMode "\"rectangular\""
attr enum circular,rectangular
par VitalGuardNet.visualizer.canvasVisualizer.dataLinkVisualizer labelFormat "\"%n\""
par VitalGuardNet.visualizer.canvasVisualizer.dataLinkVisualizer labelFont "\"<default>, 8px\""
par VitalGuardNet.visualizer.canvasVisualizer.dataLinkVisualizer labelColor "\"darkcyan\""
par VitalGuardNet.visualizer.canvasVisualizer.dataLinkVisualizer fadeOutMode "\"realTime\""
attr enum realTime,animationTime,simulationTime
par VitalGuardNet.visualizer.canvasVisualizer.dataLinkVisualizer fadeOutTime 1s
attr unit s
par VitalGuardNet.visualizer.canvasVisualizer.dataLinkVisualizer fadeOutAnimationSpeed 0
par VitalGuardNet.visualizer.canvasVisualizer.dataLinkVisualizer holdAnimationTime 0s
attr unit s
par VitalGuardNet.visualizer.canvasVisualizer.dataLinkVisualizer zIndex 2
par VitalGuardNet.visualizer.canvasVisualizer.linkBreakVisualizer typename "\"inet.visualizer.canvas.linklayer.LinkBreakCanvasVisualizer\""
par VitalGuardNet.visualizer.canvasVisualizer.linkBreakVisualizer visualizationTargetModule "\"^.^.^\""
par VitalGuardNet.visualizer.canvasVisualizer.linkBreakVisualizer visualizationSubjectModule "\"^.^.^\""
par VitalGuardNet.visualizer.canvasVisualizer.linkBreakVisualizer tags "\"\""
par VitalGuardNet.visualizer.canvasVisualizer.linkBreakVisualizer displayLinkBreaks false
par VitalGuardNet.visualizer.canvasVisualizer.linkBreakVisualizer nodeFilter "\"*\""
attr mutable ""
par VitalGuardNet.visualizer.canvasVisualizer.linkBreakVisualizer interfaceFilter "\"*\""
attr mutable ""
par VitalGuardNet.visualizer.canvasVisualizer.linkBreakVisualizer packetFilter "(omnetpp::cValueHolder)holder: \"*\""
attr mutable ""
par VitalGuardNet.visualizer.canvasVisualizer.linkBreakVisualizer icon "\"status/stop\""
par VitalGuardNet.visualizer.canvasVisualizer.linkBreakVisualizer iconTintAmount 0
par VitalGuardNet.visualizer.canvasVisualizer.linkBreakVisualizer iconTintColor "\"\""
par VitalGuardNet.visualizer.canvasVisualizer.linkBreakVisualizer fadeOutMode "\"realTime\""
attr enum realTime,animationTime,simulationTime
par VitalGuardNet.visualizer.canvasVisualizer.linkBreakVisualizer fadeOutTime 1s
attr unit s
par VitalGuardNet.visualizer.canvasVisualizer.linkBreakVisualizer fadeOutAnimationSpeed 0
par VitalGuardNet.visualizer.canvasVisualizer.linkBreakVisualizer zIndex 2
par VitalGuardNet.visualizer.canvasVisualizer.ieee80211Visualizer typename "\"inet.visualizer.canvas.linklayer.Ieee80211CanvasVisualizer\""
par VitalGuardNet.visualizer.canvasVisualizer.ieee80211Visualizer visualizationTargetModule "\"^.^.^\""
par VitalGuardNet.visualizer.canvasVisualizer.ieee80211Visualizer visualizationSubjectModule "\"^.^.^\""
par VitalGuardNet.visualizer.canvasVisualizer.ieee80211Visualizer tags "\"\""
par VitalGuardNet.visualizer.canvasVisualizer.ieee80211Visualizer networkNodeVisualizerModule "\"^.networkNodeVisualizer\""
par VitalGuardNet.visualizer.canvasVisualizer.ieee80211Visualizer displayAssociations false
par VitalGuardNet.visualizer.canvasVisualizer.ieee80211Visualizer nodeFilter "\"*\""
attr mutable ""
par VitalGuardNet.visualizer.canvasVisualizer.ieee80211Visualizer interfaceFilter "\"*\""
attr mutable ""
par VitalGuardNet.visualizer.canvasVisualizer.ieee80211Visualizer minPower -85dBm
attr unit dBm
par VitalGuardNet.visualizer.canvasVisualizer.ieee80211Visualizer maxPower -50dBm
attr unit dBm
par VitalGuardNet.visualizer.canvasVisualizer.ieee80211Visualizer icons "\"misc/signal_power_0 misc/signal_power_1 misc/signal_power_2 misc/signal_power_3\""
par VitalGuardNet.visualizer.canvasVisualizer.ieee80211Visualizer iconColor "\"dark\""
par VitalGuardNet.visualizer.canvasVisualizer.ieee80211Visualizer labelFont "\"<default>\""
par VitalGuardNet.visualizer.canvasVisualizer.ieee80211Visualizer labelColor "\"black\""
par VitalGuardNet.visualizer.canvasVisualizer.ieee80211Visualizer placementHint "\"top\""
par VitalGuardNet.visualizer.canvasVisualizer.ieee80211Visualizer placementPriority 0
par VitalGuardNet.visualizer.canvasVisualizer.ieee80211Visualizer zIndex 2
par VitalGuardNet.visualizer.canvasVisualizer.networkRouteVisualizer typename "\"inet.visualizer.canvas.networklayer.NetworkRouteCanvasVisualizer\""
par VitalGuardNet.visualizer.canvasVisualizer.networkRouteVisualizer visualizationTargetModule "\"^.^.^\""
par VitalGuardNet.visualizer.canvasVisualizer.networkRouteVisualizer visualizationSubjectModule "\"^.^.^\""
par VitalGuardNet.visualizer.canvasVisualizer.networkRouteVisualizer tags "\"\""
par VitalGuardNet.visualizer.canvasVisualizer.networkRouteVisualizer displayRoutes false
par VitalGuardNet.visualizer.canvasVisualizer.networkRouteVisualizer startPathSignal "\"packetReceivedFromUpper\""
par VitalGuardNet.visualizer.canvasVisualizer.networkRouteVisualizer extendPathSignal "\"packetReceivedFromLower\""
par VitalGuardNet.visualizer.canvasVisualizer.networkRouteVisualizer endPathSignal "\"packetSentToUpper\""
par VitalGuardNet.visualizer.canvasVisualizer.networkRouteVisualizer nodeFilter "\"*\""
attr mutable ""
par VitalGuardNet.visualizer.canvasVisualizer.networkRouteVisualizer packetFilter "(omnetpp::cValueHolder)holder: \"*\""
attr mutable ""
par VitalGuardNet.visualizer.canvasVisualizer.networkRouteVisualizer lineColor "\"dark\""
par VitalGuardNet.visualizer.canvasVisualizer.networkRouteVisualizer lineStyle "\"solid\""
par VitalGuardNet.visualizer.canvasVisualizer.networkRouteVisualizer lineWidth 3
par VitalGuardNet.visualizer.canvasVisualizer.networkRouteVisualizer lineSmooth false
par VitalGuardNet.visualizer.canvasVisualizer.networkRouteVisualizer lineShift 16
par VitalGuardNet.visualizer.canvasVisualizer.networkRouteVisualizer lineShiftMode "\"normal\""
par VitalGuardNet.visualizer.canvasVisualizer.networkRouteVisualizer lineContactSpacing 3
par VitalGuardNet.visualizer.canvasVisualizer.networkRouteVisualizer lineContactMode "\"rectangular\""
attr enum circular,rectangular
par VitalGuardNet.visualizer.canvasVisualizer.networkRouteVisualizer labelFormat "\"%n\""
par VitalGuardNet.visualizer.canvasVisualizer.networkRouteVisualizer labelFont "\"<default>, 8px\""
par VitalGuardNet.visualizer.canvasVisualizer.networkRouteVisualizer labelColor "\"\""
par VitalGuardNet.visualizer.canvasVisualizer.networkRouteVisualizer fadeOutMode "\"realTime\""
attr enum realTime,animationTime,simulationTime
par VitalGuardNet.visualizer.canvasVisualizer.networkRouteVisualizer fadeOutTime 1s
attr unit s
par VitalGuardNet.visualizer.canvasVisualizer.networkRouteVisualizer fadeOutAnimationSpeed 0
par VitalGuardNet.visualizer.canvasVisualizer.networkRouteVisualizer zIndex 3
par VitalGuardNet.visualizer.canvasVisualizer.routingTableVisualizer typename "\"inet.visualizer.canvas.networklayer.RoutingTableCanvasVisualizer\""
par VitalGuardNet.visualizer.canvasVisualizer.routingTableVisualizer visualizationTargetModule "\"^.^.^\""
par VitalGuardNet.visualizer.canvasVisualizer.routingTableVisualizer visualizationSubjectModule "\"^.^.^\""
par VitalGuardNet.visualizer.canvasVisualizer.routingTableVisualizer tags "\"\""
par VitalGuardNet.visualizer.canvasVisualizer.routingTableVisualizer displayRoutingTables false
par VitalGuardNet.visualizer.canvasVisualizer.routingTableVisualizer displayRoutesIndividually true
par VitalGuardNet.visualizer.canvasVisualizer.routingTableVisualizer displayLabels true
par VitalGuardNet.visualizer.canvasVisualizer.routingTableVisualizer destinationFilter "\"*\""
attr mutable ""
par VitalGuardNet.visualizer.canvasVisualizer.routingTableVisualizer nodeFilter "\"*\""
attr mutable ""
par VitalGuardNet.visualizer.canvasVisualizer.routingTableVisualizer lineColor "\"black\""
par VitalGuardNet.visualizer.canvasVisualizer.routingTableVisualizer lineStyle "\"solid\""
par VitalGuardNet.visualizer.canvasVisualizer.routingTableVisualizer lineWidth 2
par VitalGuardNet.visualizer.canvasVisualizer.routingTableVisualizer lineShift 16
par VitalGuardNet.visualizer.canvasVisualizer.routingTableVisualizer lineShiftMode "\"normal\""
par VitalGuardNet.visualizer.canvasVisualizer.routingTableVisualizer lineContactSpacing 3
par VitalGuardNet.visualizer.canvasVisualizer.routingTableVisualizer lineContactMode "\"rectangular\""
attr enum circular,rectangular
par VitalGuardNet.visualizer.canvasVisualizer.routingTableVisualizer labelFormat "\"%d/%m -> %g (%n)\""
attr mutable ""
par VitalGuardNet.visualizer.canvasVisualizer.routingTableVisualizer labelFont "\"<default>, 8px\""
par VitalGuardNet.visualizer.canvasVisualizer.routingTableVisualizer labelColor "\"black\""
par VitalGuardNet.visualizer.canvasVisualizer.routingTableVisualizer zIndex 0
par VitalGuardNet.visualizer.canvasVisualizer.transportRouteVisualizer typename "\"inet.visualizer.canvas.transportlayer.TransportRouteCanvasVisualizer\""
par VitalGuardNet.visualizer.canvasVisualizer.transportRouteVisualizer visualizationTargetModule "\"^.^.^\""
par VitalGuardNet.visualizer.canvasVisualizer.transportRouteVisualizer visualizationSubjectModule "\"^.^.^\""
par VitalGuardNet.visualizer.canvasVisualizer.transportRouteVisualizer tags "\"\""
par VitalGuardNet.visualizer.canvasVisualizer.transportRouteVisualizer displayRoutes false
par VitalGuardNet.visualizer.canvasVisualizer.transportRouteVisualizer startPathSignal "\"packetReceivedFromUpper\""
par VitalGuardNet.visualizer.canvasVisualizer.transportRouteVisualizer extendPathSignal "\"packetReceivedFromLower\""
par VitalGuardNet.visualizer.canvasVisualizer.transportRouteVisualizer endPathSignal "\"packetSentToUpper\""
par VitalGuardNet.visualizer.canvasVisualizer.transportRouteVisualizer nodeFilter "\"*\""
attr mutable ""
par VitalGuardNet.visualizer.canvasVisualizer.transportRouteVisualizer packetFilter "(omnetpp::cValueHolder)holder: \"*\""
attr mutable ""
par VitalGuardNet.visualizer.canvasVisualizer.transportRouteVisualizer lineColor "\"dark\""
par VitalGuardNet.visualizer.canvasVisualizer.transportRouteVisualizer lineStyle "\"solid\""
par VitalGuardNet.visualizer.canvasVisualizer.transportRouteVisualizer lineWidth 3
par VitalGuardNet.visualizer.canvasVisualizer.transportRouteVisualizer lineSmooth false
par VitalGuardNet.visualizer.canvasVisualizer.transportRouteVisualizer lineShift 16
par VitalGuardNet.visualizer.canvasVisualizer.transportRouteVisualizer lineShiftMode "\"normal\""
par VitalGuardNet.visualizer.canvasVisualizer.transportRouteVisualizer lineContactSpacing 3
par VitalGuardNet.visualizer.canvasVisualizer.transportRouteVisualizer lineContactMode "\"rectangular\""
attr enum circular,rectangular
par VitalGuardNet.visualizer.canvasVisualizer.transportRouteVisualizer labelFormat "\"%n\""
par VitalGuardNet.visualizer.canvasVisualizer.transportRouteVisualizer labelFont "\"<default>, 8px\""
par VitalGuardNet.visualizer.canvasVisualizer.transportRouteVisualizer labelColor "\"\""
par VitalGuardNet.visualizer.canvasVisualizer.transportRouteVisualizer fadeOutMode "\"realTime\""
attr enum realTime,animationTime,simulationTime
par VitalGuardNet.visualizer.canvasVisualizer.transportRouteVisualizer fadeOutTime 1s
attr unit s
par VitalGuardNet.visualizer.canvasVisualizer.transportRouteVisualizer fadeOutAnimationSpeed 0
par VitalGuardNet.visualizer.canvasVisualizer.transportRouteVisualizer zIndex 4
par VitalGuardNet.visualizer.canvasVisualizer.transportConnectionVisualizer typename "\"inet.visualizer.canvas.transportlayer.TransportConnectionCanvasVisualizer\""
par VitalGuardNet.visualizer.canvasVisualizer.transportConnectionVisualizer visualizationTargetModule "\"^.^.^\""
par VitalGuardNet.visualizer.canvasVisualizer.transportConnectionVisualizer visualizationSubjectModule "\"^.^.^\""
par VitalGuardNet.visualizer.canvasVisualizer.transportConnectionVisualizer tags "\"\""
par VitalGuardNet.visualizer.canvasVisualizer.transportConnectionVisualizer networkNodeVisualizerModule "\"^.networkNodeVisualizer\""
par VitalGuardNet.visualizer.canvasVisualizer.transportConnectionVisualizer displayTransportConnections false
par VitalGuardNet.visualizer.canvasVisualizer.transportConnectionVisualizer sourceNodeFilter "\"*\""
attr mutable ""
par VitalGuardNet.visualizer.canvasVisualizer.transportConnectionVisualizer sourcePortFilter "\"*\""
attr mutable ""
par VitalGuardNet.visualizer.canvasVisualizer.transportConnectionVisualizer destinationNodeFilter "\"*\""
attr mutable ""
par VitalGuardNet.visualizer.canvasVisualizer.transportConnectionVisualizer destinationPortFilter "\"*\""
attr mutable ""
par VitalGuardNet.visualizer.canvasVisualizer.transportConnectionVisualizer icon "\"misc/marker_s\""
par VitalGuardNet.visualizer.canvasVisualizer.transportConnectionVisualizer iconColor "\"dark\""
par VitalGuardNet.visualizer.canvasVisualizer.transportConnectionVisualizer labelFont "\"<default>\""
par VitalGuardNet.visualizer.canvasVisualizer.transportConnectionVisualizer labelColor "\"black\""
par VitalGuardNet.visualizer.canvasVisualizer.transportConnectionVisualizer placementHint "\"top\""
par VitalGuardNet.visualizer.canvasVisualizer.transportConnectionVisualizer placementPriority 0
par VitalGuardNet.visualizer.canvasVisualizer.transportConnectionVisualizer zIndex 4
par VitalGuardNet.visualizer.canvasVisualizer.failureProtectionConfigurationVisualizer typename "\"inet.visualizer.canvas.configurator.FailureProtectionConfigurationCanvasVisualizer\""
par VitalGuardNet.visualizer.canvasVisualizer.failureProtectionConfigurationVisualizer visualizationTargetModule "\"^.^.^\""
par VitalGuardNet.visualizer.canvasVisualizer.failureProtectionConfigurationVisualizer visualizationSubjectModule "\"^.^.^\""
par VitalGuardNet.visualizer.canvasVisualizer.failureProtectionConfigurationVisualizer tags "\"\""
par VitalGuardNet.visualizer.canvasVisualizer.failureProtectionConfigurationVisualizer displayTrees false
par VitalGuardNet.visualizer.canvasVisualizer.failureProtectionConfigurationVisualizer lineColor "\"dark\""
par VitalGuardNet.visualizer.canvasVisualizer.failureProtectionConfigurationVisualizer lineStyle "\"solid\""
par VitalGuardNet.visualizer.canvasVisualizer.failureProtectionConfigurationVisualizer lineWidth 3
par VitalGuardNet.visualizer.canvasVisualizer.failureProtectionConfigurationVisualizer lineSmooth false
par VitalGuardNet.visualizer.canvasVisualizer.failureProtectionConfigurationVisualizer lineShift 16
par VitalGuardNet.visualizer.canvasVisualizer.failureProtectionConfigurationVisualizer lineShiftMode "\"normal\""
par VitalGuardNet.visualizer.canvasVisualizer.failureProtectionConfigurationVisualizer lineContactSpacing 3
par VitalGuardNet.visualizer.canvasVisualizer.failureProtectionConfigurationVisualizer lineContactMode "\"rectangular\""
attr enum circular,rectangular
par VitalGuardNet.visualizer.canvasVisualizer.failureProtectionConfigurationVisualizer failureProtectionConfiguratorModule "\"failureProtectionConfigurator\""
par VitalGuardNet.visualizer.canvasVisualizer.failureProtectionConfigurationVisualizer streamFilter "\"*\""
par VitalGuardNet.visualizer.canvasVisualizer.failureProtectionConfigurationVisualizer zIndex 3
par VitalGuardNet.visualizer.canvasVisualizer.streamRedundancyConfigurationVisualizer typename "\"inet.visualizer.canvas.configurator.StreamRedundancyConfigurationCanvasVisualizer\""
par VitalGuardNet.visualizer.canvasVisualizer.streamRedundancyConfigurationVisualizer visualizationTargetModule "\"^.^.^\""
par VitalGuardNet.visualizer.canvasVisualizer.streamRedundancyConfigurationVisualizer visualizationSubjectModule "\"^.^.^\""
par VitalGuardNet.visualizer.canvasVisualizer.streamRedundancyConfigurationVisualizer tags "\"\""
par VitalGuardNet.visualizer.canvasVisualizer.streamRedundancyConfigurationVisualizer displayTrees false
par VitalGuardNet.visualizer.canvasVisualizer.streamRedundancyConfigurationVisualizer lineColor "\"dark\""
par VitalGuardNet.visualizer.canvasVisualizer.streamRedundancyConfigurationVisualizer lineStyle "\"solid\""
par VitalGuardNet.visualizer.canvasVisualizer.streamRedundancyConfigurationVisualizer lineWidth 3
par VitalGuardNet.visualizer.canvasVisualizer.streamRedundancyConfigurationVisualizer lineSmooth false
par VitalGuardNet.visualizer.canvasVisualizer.streamRedundancyConfigurationVisualizer lineShift 16
par VitalGuardNet.visualizer.canvasVisualizer.streamRedundancyConfigurationVisualizer lineShiftMode "\"normal\""
par VitalGuardNet.visualizer.canvasVisualizer.streamRedundancyConfigurationVisualizer lineContactSpacing 3
par VitalGuardNet.visualizer.canvasVisualizer.streamRedundancyConfigurationVisualizer lineContactMode "\"rectangular\""
attr enum circular,rectangular
par VitalGuardNet.visualizer.canvasVisualizer.streamRedundancyConfigurationVisualizer streamRedundancyConfiguratorModule "\"streamRedundancyConfigurator\""
par VitalGuardNet.visualizer.canvasVisualizer.streamRedundancyConfigurationVisualizer streamFilter "\"*\""
par VitalGuardNet.visualizer.canvasVisualizer.streamRedundancyConfigurationVisualizer zIndex 3
par VitalGuardNet.visualizer.canvasVisualizer typename "\"inet.visualizer.canvas.integrated.IntegratedCanvasVisualizer\""
par VitalGuardNet.visualizer typename "\"inet.visualizer.common.IntegratedVisualizer\""
par VitalGuardNet.physicalEnvironment typename "\"inet.environment.common.PhysicalEnvironment\""
par VitalGuardNet.physicalEnvironment coordinateSystemModule "\"\""
par VitalGuardNet.physicalEnvironment temperature 293K
attr unit K
par VitalGuardNet.physicalEnvironment spaceMinX "nan m"
attr unit m
par VitalGuardNet.physicalEnvironment spaceMinY "nan m"
attr unit m
par VitalGuardNet.physicalEnvironment spaceMinZ "nan m"
attr unit m
par VitalGuardNet.physicalEnvironment spaceMaxX "nan m"
attr unit m
par VitalGuardNet.physicalEnvironment spaceMaxY "nan m"
attr unit m
par VitalGuardNet.physicalEnvironment spaceMaxZ "nan m"
attr unit m
par VitalGuardNet.physicalEnvironment config "<environment>...</environment> at C:/omnetpp-6.0/omnetpp-6.3.0/samples/VitalGuard_Sim/\\hospital_obstacles.xml:1"
par VitalGuardNet.configurator typename "\"inet.networklayer.configurator.ipv4.Ipv4NetworkConfigurator\""
par VitalGuardNet.configurator minLinkWeight 0.001
par VitalGuardNet.configurator configureIsolatedNetworksSeparatly false
par VitalGuardNet.configurator config "<config>...</config> at content:1"
par VitalGuardNet.configurator assignAddresses true
par VitalGuardNet.configurator assignUniqueAddresses true
par VitalGuardNet.configurator assignDisjunctSubnetAddresses true
par VitalGuardNet.configurator addStaticRoutes true
par VitalGuardNet.configurator addDefaultRoutes true
par VitalGuardNet.configurator addSubnetRoutes true
par VitalGuardNet.configurator addDirectRoutes true
par VitalGuardNet.configurator optimizeRoutes true
par VitalGuardNet.configurator dumpTopology false
par VitalGuardNet.configurator dumpLinks false
par VitalGuardNet.configurator dumpAddresses false
par VitalGuardNet.configurator dumpRoutes false
par VitalGuardNet.configurator dumpConfig "\"\""
par VitalGuardNet.radioMedium.propagation typename "\"inet.physicallayer.wireless.common.propagation.ConstantSpeedPropagation\""
par VitalGuardNet.radioMedium.propagation propagationSpeed 2.99792e+08mps
attr unit mps
par VitalGuardNet.radioMedium.propagation ignoreMovementDuringTransmission true
par VitalGuardNet.radioMedium.propagation ignoreMovementDuringPropagation true
par VitalGuardNet.radioMedium.propagation ignoreMovementDuringReception true
scalar VitalGuardNet.radioMedium.propagation "Arrival computation count" 0
par VitalGuardNet.radioMedium.analogModel typename "\"inet.physicallayer.wireless.common.analogmodel.packetlevel.ScalarAnalogModel\""
par VitalGuardNet.radioMedium.analogModel ignorePartialInterference false
par VitalGuardNet.radioMedium.backgroundNoise typename "\"inet.physicallayer.wireless.common.backgroundnoise.IsotropicScalarBackgroundNoise\""
par VitalGuardNet.radioMedium.backgroundNoise power -110dBm
attr unit dBm
par VitalGuardNet.radioMedium.backgroundNoise bandwidth "nan Hz"
attr unit Hz
par VitalGuardNet.radioMedium.pathLoss typename "\"inet.physicallayer.wireless.common.pathloss.FreeSpacePathLoss\""
par VitalGuardNet.radioMedium.pathLoss alpha 2
par VitalGuardNet.radioMedium.pathLoss systemLoss 0dB
attr unit dB
par VitalGuardNet.radioMedium.obstacleLoss typename "\"inet.physicallayer.wireless.common.obstacleloss.DielectricObstacleLoss\""
par VitalGuardNet.radioMedium.obstacleLoss physicalEnvironmentModule "\"physicalEnvironment\""
par VitalGuardNet.radioMedium.obstacleLoss enableDielectricLoss true
par VitalGuardNet.radioMedium.obstacleLoss enableReflectionLoss true
scalar VitalGuardNet.radioMedium.obstacleLoss "Obstacle loss intersection computation count" 0
scalar VitalGuardNet.radioMedium.obstacleLoss "Obstacle loss intersection count" 0
par VitalGuardNet.radioMedium.mediumLimitCache typename "\"inet.physicallayer.wireless.common.medium.MediumLimitCache\""
par VitalGuardNet.radioMedium.mediumLimitCache centerFrequency 2.4e+09Hz
attr unit Hz
par VitalGuardNet.radioMedium.mediumLimitCache maxSpeed "nan mps"
attr unit mps
par VitalGuardNet.radioMedium.mediumLimitCache maxTransmissionPower "nan W"
attr unit W
par VitalGuardNet.radioMedium.mediumLimitCache minInterferencePower -110dBm
attr unit dBm
par VitalGuardNet.radioMedium.mediumLimitCache minReceptionPower -85dBm
attr unit dBm
par VitalGuardNet.radioMedium.mediumLimitCache maxAntennaGain 0dB
attr unit dB
par VitalGuardNet.radioMedium.mediumLimitCache minInterferenceTime 1e-12s
attr unit s
par VitalGuardNet.radioMedium.mediumLimitCache maxTransmissionDuration 0.01s
attr unit s
par VitalGuardNet.radioMedium.mediumLimitCache maxCommunicationRange "nan m"
attr unit m
par VitalGuardNet.radioMedium.mediumLimitCache maxInterferenceRange "nan m"
attr unit m
par VitalGuardNet.radioMedium.communicationCache typename "\"inet.physicallayer.wireless.common.communicationcache.VectorCommunicationCache\""
par VitalGuardNet.radioMedium typename "\"inet.physicallayer.wireless.ieee80211.packetlevel.Ieee80211ScalarRadioMedium\""
par VitalGuardNet.radioMedium physicalEnvironmentModule "\"physicalEnvironment\""
par VitalGuardNet.radioMedium signalAnalogRepresentation "\"scalar\""
attr enum unitDisk,scalar,dimensional
par VitalGuardNet.radioMedium rangeFilter "\"\""
par VitalGuardNet.radioMedium radioModeFilter false
par VitalGuardNet.radioMedium listeningFilter false
par VitalGuardNet.radioMedium macAddressFilter false
par VitalGuardNet.radioMedium recordTransmissionLog false
par VitalGuardNet.radioMedium recordReceptionLog false
scalar VitalGuardNet.radioMedium "transmission count" 0
scalar VitalGuardNet.radioMedium "signal send count" 0
scalar VitalGuardNet.radioMedium "reception computation count" 0
scalar VitalGuardNet.radioMedium "interference computation count" 4
scalar VitalGuardNet.radioMedium "reception decision computation count" 0
scalar VitalGuardNet.radioMedium "listening decision computation count" 4
scalar VitalGuardNet.radioMedium "reception cache hit" -nan(ind)
attr unit %
scalar VitalGuardNet.radioMedium "interference cache hit" -nan(ind)
attr unit %
scalar VitalGuardNet.radioMedium "noise cache hit" -nan(ind)
attr unit %
scalar VitalGuardNet.radioMedium "snir cache hit" -nan(ind)
attr unit %
scalar VitalGuardNet.radioMedium "reception decision cache hit" -nan(ind)
attr unit %
scalar VitalGuardNet.radioMedium "reception result cache hit" -nan(ind)
attr unit %
par VitalGuardNet.host[0].radioIn[0].channel typename "\"ned.IdealChannel\""
par VitalGuardNet.host[0].mobility typename "\"inet.mobility.static.StationaryMobility\""
par VitalGuardNet.host[0].mobility subjectModule "\"^\""
par VitalGuardNet.host[0].mobility coordinateSystemModule "\"\""
par VitalGuardNet.host[0].mobility displayStringTextFormat "\"p: %p\\nv: %v\""
attr mutable ""
par VitalGuardNet.host[0].mobility updateDisplayString true
par VitalGuardNet.host[0].mobility constraintAreaMinX "-inf m"
attr unit m
par VitalGuardNet.host[0].mobility constraintAreaMinY "-inf m"
attr unit m
par VitalGuardNet.host[0].mobility constraintAreaMinZ "-inf m"
attr unit m
par VitalGuardNet.host[0].mobility constraintAreaMaxX "inf m"
attr unit m
par VitalGuardNet.host[0].mobility constraintAreaMaxY "inf m"
attr unit m
par VitalGuardNet.host[0].mobility constraintAreaMaxZ "inf m"
attr unit m
par VitalGuardNet.host[0].mobility initialX "nan m"
attr unit m
par VitalGuardNet.host[0].mobility initialY "nan m"
attr unit m
par VitalGuardNet.host[0].mobility initialZ 0m
attr unit m
par VitalGuardNet.host[0].mobility initialLatitude "nan deg"
attr unit deg
par VitalGuardNet.host[0].mobility initialLongitude "nan deg"
attr unit deg
par VitalGuardNet.host[0].mobility initialAltitude 0m
attr unit m
par VitalGuardNet.host[0].mobility initialHeading 0deg
attr unit deg
par VitalGuardNet.host[0].mobility initialElevation 0deg
attr unit deg
par VitalGuardNet.host[0].mobility initialBank 0deg
attr unit deg
par VitalGuardNet.host[0].mobility initFromDisplayString true
par VitalGuardNet.host[0].mobility updateFromDisplayString true
par VitalGuardNet.host[0].interfaceTable typename "\"inet.networklayer.common.InterfaceTable\""
par VitalGuardNet.host[0].interfaceTable displayAddresses false
par VitalGuardNet.host[0].cb typename "\"inet.common.MessageDispatcher\""
par VitalGuardNet.host[0].cb displayStringTextFormat "\"processed %p pk (%l)\""
par VitalGuardNet.host[0].cb forwardServiceRegistration true
par VitalGuardNet.host[0].cb forwardProtocolRegistration true
par VitalGuardNet.host[0].bl typename "\"inet.common.MessageDispatcher\""
par VitalGuardNet.host[0].bl displayStringTextFormat "\"processed %p pk (%l)\""
par VitalGuardNet.host[0].bl forwardServiceRegistration true
par VitalGuardNet.host[0].bl forwardProtocolRegistration true
par VitalGuardNet.host[0].li typename "\"inet.common.MessageDispatcher\""
par VitalGuardNet.host[0].li displayStringTextFormat "\"processed %p pk (%l)\""
par VitalGuardNet.host[0].li forwardServiceRegistration true
par VitalGuardNet.host[0].li forwardProtocolRegistration true
par VitalGuardNet.host[0].lo[0].upperLayerIn.channel typename "\"ned.IdealChannel\""
par VitalGuardNet.host[0].lo[0].lo.upperLayerOut.channel typename "\"ned.IdealChannel\""
par VitalGuardNet.host[0].lo[0].lo typename "\"inet.linklayer.loopback.Loopback\""
par VitalGuardNet.host[0].lo[0].lo interfaceTableModule "\"VitalGuardNet.host[0].interfaceTable\""
par VitalGuardNet.host[0].lo[0].lo mtu 4470B
attr unit B
scalar VitalGuardNet.host[0].lo[0].lo rcvdPkFromHl:count 0
attr interpolationmode none
attr recordingmode count
attr source packetReceivedFromUpper
attr title "packets received from higher layer, count"
scalar VitalGuardNet.host[0].lo[0].lo rcvdPkFromHl:sum(packetBytes) 0
attr interpolationmode none
attr recordingmode sum(packetBytes)
attr source packetReceivedFromUpper
attr title "packets received from higher layer, sum(packetBytes)"
scalar VitalGuardNet.host[0].lo[0].lo passedUpPk:count 0
attr interpolationmode none
attr recordingmode count
attr source packetSentToUpper
attr title "packets passed to higher layer, count"
scalar VitalGuardNet.host[0].lo[0].lo passedUpPk:sum(packetBytes) 0
attr interpolationmode none
attr recordingmode sum(packetBytes)
attr source packetSentToUpper
attr title "packets passed to higher layer, sum(packetBytes)"
par VitalGuardNet.host[0].lo[0] typename "\"inet.linklayer.loopback.LoopbackInterface\""
par VitalGuardNet.host[0].lo[0] displayStringTextFormat "\"%a (%i)\\n%m\""
par VitalGuardNet.host[0].lo[0] recordPcap false
par VitalGuardNet.host[0].lo[0] numPcapRecorders 0
par VitalGuardNet.host[0].lo[0] interfaceTableModule "\"VitalGuardNet.host[0].interfaceTable\""
scalar VitalGuardNet.host[0].lo[0] packetDropInterfaceDown:count 0
attr interpolationmode none
attr recordingmode count
attr source packetDropReasonIsInterfaceDown(packetDropped)
attr title "packet drops: interface down, count"
scalar VitalGuardNet.host[0].lo[0] packetDropInterfaceDown:sum(packetBytes) 0
attr interpolationmode none
attr recordingmode sum(packetBytes)
attr source packetDropReasonIsInterfaceDown(packetDropped)
attr title "packet drops: interface down, sum(packetBytes)"
scalar VitalGuardNet.host[0].lo[0] packetDropNoCarrier:count 0
attr interpolationmode none
attr recordingmode count
attr source packetDropReasonIsNoCarrier(packetDropped)
attr title "packet drops: no carrier, count"
scalar VitalGuardNet.host[0].lo[0] packetDropNoCarrier:sum(packetBytes) 0
attr interpolationmode none
attr recordingmode sum(packetBytes)
attr source packetDropReasonIsNoCarrier(packetDropped)
attr title "packet drops: no carrier, sum(packetBytes)"
par VitalGuardNet.host[0].wlan[0].radioIn.channel typename "\"ned.IdealChannel\""
par VitalGuardNet.host[0].wlan[0].llc.upperLayerOut.channel typename "\"ned.IdealChannel\""
par VitalGuardNet.host[0].wlan[0].upperLayerIn.channel typename "\"ned.IdealChannel\""
par VitalGuardNet.host[0].wlan[0].mib typename "\"inet.linklayer.ieee80211.mib.Ieee80211Mib\""
par VitalGuardNet.host[0].wlan[0].llc typename "\"inet.linklayer.ieee80211.llc.Ieee80211LlcLpd\""
par VitalGuardNet.host[0].wlan[0].llc registerProtocol false
par VitalGuardNet.host[0].wlan[0].mgmt typename "\"inet.linklayer.ieee80211.mgmt.Ieee80211MgmtAdhoc\""
par VitalGuardNet.host[0].wlan[0].mgmt mibModule "\"VitalGuardNet.host[0].wlan[0].mib\""
par VitalGuardNet.host[0].wlan[0].mgmt macModule "\"VitalGuardNet.host[0].wlan[0].mac\""
par VitalGuardNet.host[0].wlan[0].mgmt interfaceTableModule "\"VitalGuardNet.host[0].interfaceTable\""
par VitalGuardNet.host[0].wlan[0].mac.dcf.channelAccess.pendingQueue typename "\"inet.linklayer.ieee80211.mac.queue.PendingQueue\""
par VitalGuardNet.host[0].wlan[0].mac.dcf.channelAccess.pendingQueue displayStringTextFormat "\"contains %p pk (%l) pushed %u\\npulled %o removed %r dropped %d\""
par VitalGuardNet.host[0].wlan[0].mac.dcf.channelAccess.pendingQueue packetCapacity 100
par VitalGuardNet.host[0].wlan[0].mac.dcf.channelAccess.pendingQueue dataCapacity -1b
attr unit b
par VitalGuardNet.host[0].wlan[0].mac.dcf.channelAccess.pendingQueue dropperClass "\"inet::queueing::PacketAtCollectionEndDropper\""
par VitalGuardNet.host[0].wlan[0].mac.dcf.channelAccess.pendingQueue comparatorClass "\"inet::ieee80211::MgmtOverDataComparator\""
par VitalGuardNet.host[0].wlan[0].mac.dcf.channelAccess.pendingQueue bufferModule "\"\""
scalar VitalGuardNet.host[0].wlan[0].mac.dcf.channelAccess.pendingQueue queueLength:last 0
attr autoWarmupFilter false
attr interpolationmode sample-hold
attr recordingmode last
attr source "warmup(atomic(constant0(packetPushEnded) + count(packetPushStarted) - count(packetPulled) - count(packetRemoved) - count(packetDropped)))"
attr title "queue length, last"
attr unit pk
scalar VitalGuardNet.host[0].wlan[0].mac.dcf.channelAccess.pendingQueue queueLength:max 0
attr autoWarmupFilter false
attr interpolationmode sample-hold
attr recordingmode max
attr source "warmup(atomic(constant0(packetPushEnded) + count(packetPushStarted) - count(packetPulled) - count(packetRemoved) - count(packetDropped)))"
attr title "queue length, max"
attr unit pk
scalar VitalGuardNet.host[0].wlan[0].mac.dcf.channelAccess.pendingQueue queueLength:timeavg 0
attr autoWarmupFilter false
attr interpolationmode sample-hold
attr recordingmode timeavg
attr source "warmup(atomic(constant0(packetPushEnded) + count(packetPushStarted) - count(packetPulled) - count(packetRemoved) - count(packetDropped)))"
attr title "queue length, timeavg"
attr unit pk
scalar VitalGuardNet.host[0].wlan[0].mac.dcf.channelAccess.pendingQueue queueBitLength:last 0
attr autoWarmupFilter false
attr interpolationmode sample-hold
attr recordingmode last
attr source "warmup(atomic(constant0(packetPushEnded) + sum(packetLength(packetPushStarted)) - sum(packetLength(packetPulled)) - sum(packetLength(packetRemoved)) - sum(packetLength(packetDropped))))"
attr title "queue bit length, last"
attr unit b
scalar VitalGuardNet.host[0].wlan[0].mac.dcf.channelAccess.pendingQueue queueBitLength:max 0
attr autoWarmupFilter false
attr interpolationmode sample-hold
attr recordingmode max
attr source "warmup(atomic(constant0(packetPushEnded) + sum(packetLength(packetPushStarted)) - sum(packetLength(packetPulled)) - sum(packetLength(packetRemoved)) - sum(packetLength(packetDropped))))"
attr title "queue bit length, max"
attr unit b
scalar VitalGuardNet.host[0].wlan[0].mac.dcf.channelAccess.pendingQueue queueBitLength:timeavg 0
attr autoWarmupFilter false
attr interpolationmode sample-hold
attr recordingmode timeavg
attr source "warmup(atomic(constant0(packetPushEnded) + sum(packetLength(packetPushStarted)) - sum(packetLength(packetPulled)) - sum(packetLength(packetRemoved)) - sum(packetLength(packetDropped))))"
attr title "queue bit length, timeavg"
attr unit b
statistic VitalGuardNet.host[0].wlan[0].mac.dcf.channelAccess.pendingQueue queueingTime:histogram
field count 0
field mean -nan(ind)
field stddev nan
field min nan
field max nan
field sum 0
field sqrsum 0
attr interpolationmode none
attr recordingmode histogram
attr source queueingTime(packetPulled)
attr title "queueing times"
attr unit s
bin	-inf	0
bin	0	0
bin	1	0
scalar VitalGuardNet.host[0].wlan[0].mac.dcf.channelAccess.pendingQueue outgoingPackets:count 0
attr recordingmode count
attr source packetPulled
attr title "outgoing packets, count"
attr unit pk
scalar VitalGuardNet.host[0].wlan[0].mac.dcf.channelAccess.pendingQueue outgoingPacketLengths:sum 0
attr interpolationmode none
attr recordingmode sum
attr source packetLength(packetPulled)
attr title "outgoing packet lengths, sum"
attr unit b
statistic VitalGuardNet.host[0].wlan[0].mac.dcf.channelAccess.pendingQueue outgoingPacketLengths:histogram
field count 0
field mean -nan(ind)
field stddev nan
field min nan
field max nan
field sum 0
field sqrsum 0
attr interpolationmode none
attr recordingmode histogram
attr source packetLength(packetPulled)
attr title "outgoing packet lengths"
attr unit b
bin	-inf	0
bin	0	0
bin	1	0
statistic VitalGuardNet.host[0].wlan[0].mac.dcf.channelAccess.pendingQueue flowQueueingTime:histogram
field count 0
field mean -nan(ind)
field stddev nan
field min nan
field max nan
field sum 0
field sqrsum 0
attr interpolationmode none
attr recordingmode histogram
attr source queueingTime(demuxFlow(packetPulled))
attr title "flow queueing times"
attr unit s
bin	-inf	0
bin	0	0
bin	1	0
scalar VitalGuardNet.host[0].wlan[0].mac.dcf.channelAccess.pendingQueue incomingPackets:count 0
attr recordingmode count
attr source packetPushStarted
attr title "incoming packets, count"
attr unit pk
scalar VitalGuardNet.host[0].wlan[0].mac.dcf.channelAccess.pendingQueue incomingPacketLengths:sum 0
attr interpolationmode none
attr recordingmode sum
attr source packetLength(packetPushStarted)
attr title "incoming packet lengths, sum"
attr unit b
statistic VitalGuardNet.host[0].wlan[0].mac.dcf.channelAccess.pendingQueue incomingPacketLengths:histogram
field count 0
field mean -nan(ind)
field stddev nan
field min nan
field max nan
field sum 0
field sqrsum 0
attr interpolationmode none
attr recordingmode histogram
attr source packetLength(packetPushStarted)
attr title "incoming packet lengths"
attr unit b
bin	-inf	0
bin	0	0
bin	1	0
scalar VitalGuardNet.host[0].wlan[0].mac.dcf.channelAccess.pendingQueue droppedPacketsQueueOverflow:count 0
attr interpolationmode none
attr recordingmode count
attr source packetDropReasonIsQueueOverflow(packetDropped)
attr title "dropped packets: queue overflow, count"
attr unit pk
scalar VitalGuardNet.host[0].wlan[0].mac.dcf.channelAccess.pendingQueue droppedPacketLengthsQueueOverflow:sum 0
attr interpolationmode none
attr recordingmode sum
attr source packetLength(packetDropReasonIsQueueOverflow(packetDropped))
attr title "dropped packet lengths: queue overflow, sum"
attr unit b
par VitalGuardNet.host[0].wlan[0].mac.dcf.channelAccess.inProgressFrames typename "\"inet.linklayer.ieee80211.mac.queue.InProgressFrames\""
par VitalGuardNet.host[0].wlan[0].mac.dcf.channelAccess.inProgressFrames pendingQueueModule "\"^.pendingQueue\""
par VitalGuardNet.host[0].wlan[0].mac.dcf.channelAccess.inProgressFrames originatorMacDataServiceModule "\"^.^.originatorMacDataService\""
par VitalGuardNet.host[0].wlan[0].mac.dcf.channelAccess.inProgressFrames ackHandlerModule "\"^.^.ackHandler\""
statistic VitalGuardNet.host[0].wlan[0].mac.dcf.channelAccess.inProgressFrames queueingTime:histogram
field count 0
field mean -nan(ind)
field stddev nan
field min nan
field max nan
field sum 0
field sqrsum 0
attr interpolationmode none
attr recordingmode histogram
attr source queueingTime(packetDequeued)
attr title "queueing times"
bin	-inf	0
bin	0	0
bin	1	0
scalar VitalGuardNet.host[0].wlan[0].mac.dcf.channelAccess.inProgressFrames queueLength:max 0
attr autoWarmupFilter false
attr interpolationmode sample-hold
attr recordingmode max
attr source "warmup(count(packetEnqueued) - count(packetDequeued))"
attr title "queue length, max"
scalar VitalGuardNet.host[0].wlan[0].mac.dcf.channelAccess.inProgressFrames queueLength:timeavg 0
attr autoWarmupFilter false
attr interpolationmode sample-hold
attr recordingmode timeavg
attr source "warmup(count(packetEnqueued) - count(packetDequeued))"
attr title "queue length, timeavg"
par VitalGuardNet.host[0].wlan[0].mac.dcf.channelAccess.contention typename "\"inet.linklayer.ieee80211.mac.contention.Contention\""
par VitalGuardNet.host[0].wlan[0].mac.dcf.channelAccess.contention initialChannelBusy true
par VitalGuardNet.host[0].wlan[0].mac.dcf.channelAccess.contention backoffOptimization true
scalar VitalGuardNet.host[0].wlan[0].mac.dcf.channelAccess.contention stateChanged:count 2
attr enum IDLE,DEFER,IFS_AND_BACKOFF
[...]
attr enum "2.4 GHz,5 GHz,5 GHz (20 MHz),5 GHz (40 MHz),5 GHz (80 MHz),5 GHz (160 MHz),5.9 GHz"
par VitalGuardNet.host[1].wlan[0].radio channelNumber 0
par VitalGuardNet.host[1].wlan[0].radio crcMode "\"declared\""
attr enum declared,computed
statistic VitalGuardNet.host[1].wlan[0].radio minSnir:histogram
field count 0
field mean -nan(ind)
field stddev nan
field min nan
field max nan
field sum 0
field sqrsum 0
attr recordingmode histogram
attr source minimumSnir(packetSentToUpper)
attr title "Min SNIR"
bin	-inf	0
bin	0	0
bin	1	0
statistic VitalGuardNet.host[1].wlan[0].radio packetErrorRate:histogram
field count 0
field mean -nan(ind)
field stddev nan
field min nan
field max nan
field sum 0
field sqrsum 0
attr recordingmode histogram
attr source packetErrorRate(packetSentToUpper)
attr title "Packet error rate"
bin	-inf	0
bin	0	0
bin	1	0
statistic VitalGuardNet.host[1].wlan[0].radio bitErrorRate:histogram
field count 0
field mean -nan(ind)
field stddev nan
field min nan
field max nan
field sum 0
field sqrsum 0
attr recordingmode histogram
attr source bitErrorRate(packetSentToUpper)
attr title "Bit error rate"
bin	-inf	0
bin	0	0
bin	1	0
statistic VitalGuardNet.host[1].wlan[0].radio symbolErrorRate:histogram
field count 0
field mean -nan(ind)
field stddev nan
field min nan
field max nan
field sum 0
field sqrsum 0
attr recordingmode histogram
attr source symbolErrorRate(packetSentToUpper)
attr title "Symbol error rate"
bin	-inf	0
bin	0	0
bin	1	0
scalar VitalGuardNet.host[1].wlan[0].radio transmissionState:count 0
attr interpolationmode sample-hold
attr recordingmode count
attr source transmissionStateChanged
attr title "Radio transmission state, count"
scalar VitalGuardNet.host[1].wlan[0].radio receptionState:count 1
attr interpolationmode sample-hold
attr recordingmode count
attr source receptionStateChanged
attr title "Radio reception state, count"
scalar VitalGuardNet.host[1].wlan[0].radio radioMode:count 3
attr interpolationmode sample-hold
attr recordingmode count
attr source radioModeChanged
attr title "Radio mode, count"
statistic VitalGuardNet.host[1].wlan[0].radio radioChannel:histogram
field count 1
field mean 0
field stddev nan
field min 0
field max 0
field sum 0
field sqrsum 0
attr interpolationmode sample-hold
attr recordingmode histogram
attr source radioChannelChanged
attr title "Radio channel"
bin	-inf	0
bin	-0.5	0
bin	-0.48	0
bin	-0.46	0
bin	-0.44	0
bin	-0.42	0
bin	-0.4	0
bin	-0.38	0
bin	-0.36	0
bin	-0.34	0
bin	-0.32	0
bin	-0.3	0
bin	-0.28	0
bin	-0.26	0
bin	-0.24	0
bin	-0.22	0
bin	-0.2	0
bin	-0.18	0
bin	-0.16	0
bin	-0.14	0
bin	-0.12	0
bin	-0.1	0
bin	-0.08	0
bin	-0.06	0
bin	-0.04	0
bin	-0.02	0
bin	0	1
bin	0.02	0
bin	0.04	0
bin	0.06	0
bin	0.08	0
bin	0.1	0
bin	0.12	0
bin	0.14	0
bin	0.16	0
bin	0.18	0
bin	0.2	0
bin	0.22	0
bin	0.24	0
bin	0.26	0
bin	0.28	0
bin	0.3	0
bin	0.32	0
bin	0.34	0
bin	0.36	0
bin	0.38	0
bin	0.4	0
bin	0.42	0
bin	0.44	0
bin	0.46	0
bin	0.48	0
bin	0.5	0
par VitalGuardNet.host[1].wlan[0] typename "\"inet.linklayer.ieee80211.Ieee80211Interface\""
par VitalGuardNet.host[1].wlan[0] displayStringTextFormat "\"%a (%i)\\n%m\""
par VitalGuardNet.host[1].wlan[0] recordPcap false
par VitalGuardNet.host[1].wlan[0] numPcapRecorders 0
par VitalGuardNet.host[1].wlan[0] interfaceTableModule "\"VitalGuardNet.host[1].interfaceTable\""
par VitalGuardNet.host[1].wlan[0] energySourceModule "\"\""
par VitalGuardNet.host[1].wlan[0] opMode "\"g(mixed)\""
attr enum a,b,g(erp),g(mixed),n(mixed-2.4Ghz),p,ac
par VitalGuardNet.host[1].wlan[0] address "\"0A-AA-00-00-00-02\""
attr mutable ""
par VitalGuardNet.host[1].wlan[0] protocol "\"\""
par VitalGuardNet.host[1].wlan[0] bitrate -1bps
attr unit bps
scalar VitalGuardNet.host[1].wlan[0] packetDropInterfaceDown:count 0
attr interpolationmode none
attr recordingmode count
attr source packetDropReasonIsInterfaceDown(packetDropped)
attr title "packet drops: interface down, count"
scalar VitalGuardNet.host[1].wlan[0] packetDropInterfaceDown:sum(packetBytes) 0
attr interpolationmode none
attr recordingmode sum(packetBytes)
attr source packetDropReasonIsInterfaceDown(packetDropped)
attr title "packet drops: interface down, sum(packetBytes)"
scalar VitalGuardNet.host[1].wlan[0] packetDropNoCarrier:count 0
attr interpolationmode none
attr recordingmode count
attr source packetDropReasonIsNoCarrier(packetDropped)
attr title "packet drops: no carrier, count"
scalar VitalGuardNet.host[1].wlan[0] packetDropNoCarrier:sum(packetBytes) 0
attr interpolationmode none
attr recordingmode sum(packetBytes)
attr source packetDropReasonIsNoCarrier(packetDropped)
attr title "packet drops: no carrier, sum(packetBytes)"
par VitalGuardNet.host[1].ipv4.transportIn.channel typename "\"ned.IdealChannel\""
par VitalGuardNet.host[1].ipv4.up.out[0].channel typename "\"ned.IdealChannel\""
par VitalGuardNet.host[1].ipv4.lp.out[2].channel typename "\"ned.IdealChannel\""
par VitalGuardNet.host[1].ipv4.ifIn.channel typename "\"ned.IdealChannel\""
par VitalGuardNet.host[1].ipv4.configurator typename "\"inet.networklayer.configurator.ipv4.Ipv4NodeConfigurator\""
par VitalGuardNet.host[1].ipv4.configurator interfaceTableModule "\"VitalGuardNet.host[1].interfaceTable\""
par VitalGuardNet.host[1].ipv4.configurator routingTableModule "\"VitalGuardNet.host[1].ipv4.routingTable\""
par VitalGuardNet.host[1].ipv4.configurator networkConfiguratorModule "\"configurator\""
par VitalGuardNet.host[1].ipv4.configurator configureRoutingTable true
par VitalGuardNet.host[1].ipv4.routingTable typename "\"inet.networklayer.ipv4.Ipv4RoutingTable\""
par VitalGuardNet.host[1].ipv4.routingTable interfaceTableModule "\"VitalGuardNet.host[1].interfaceTable\""
par VitalGuardNet.host[1].ipv4.routingTable routerId "\"auto\""
par VitalGuardNet.host[1].ipv4.routingTable netmaskRoutes "\"*\""
par VitalGuardNet.host[1].ipv4.routingTable forwarding true
par VitalGuardNet.host[1].ipv4.routingTable multicastForwarding false
par VitalGuardNet.host[1].ipv4.routingTable useAdminDist false
par VitalGuardNet.host[1].ipv4.routingTable routingFile "\"\""
par VitalGuardNet.host[1].ipv4.natTable typename "\"inet.networklayer.ipv4.Ipv4NatTable\""
par VitalGuardNet.host[1].ipv4.natTable networkProtocolModule "\"^.ip\""
par VitalGuardNet.host[1].ipv4.natTable config "<config/> at content:1"
par VitalGuardNet.host[1].ipv4.up typename "\"inet.common.MessageDispatcher\""
par VitalGuardNet.host[1].ipv4.up displayStringTextFormat "\"processed %p pk (%l)\""
par VitalGuardNet.host[1].ipv4.up forwardServiceRegistration true
par VitalGuardNet.host[1].ipv4.up forwardProtocolRegistration true
par VitalGuardNet.host[1].ipv4.igmp typename "\"inet.networklayer.ipv4.Igmpv2\""
par VitalGuardNet.host[1].ipv4.igmp interfaceTableModule "\"VitalGuardNet.host[1].interfaceTable\""
par VitalGuardNet.host[1].ipv4.igmp routingTableModule "\"VitalGuardNet.host[1].ipv4.routingTable\""
par VitalGuardNet.host[1].ipv4.igmp crcMode "\"declared\""
attr enum declared,computed
par VitalGuardNet.host[1].ipv4.igmp enabled true
par VitalGuardNet.host[1].ipv4.igmp robustnessVariable 2
par VitalGuardNet.host[1].ipv4.igmp queryInterval 125s
attr unit s
par VitalGuardNet.host[1].ipv4.igmp queryResponseInterval 10s
attr unit s
par VitalGuardNet.host[1].ipv4.igmp groupMembershipInterval 260s
attr unit s
par VitalGuardNet.host[1].ipv4.igmp otherQuerierPresentInterval 255s
attr unit s
par VitalGuardNet.host[1].ipv4.igmp startupQueryInterval 31.25s
attr unit s
par VitalGuardNet.host[1].ipv4.igmp startupQueryCount 2
par VitalGuardNet.host[1].ipv4.igmp lastMemberQueryInterval 1s
attr unit s
par VitalGuardNet.host[1].ipv4.igmp lastMemberQueryCount 2
par VitalGuardNet.host[1].ipv4.igmp unsolicitedReportInterval 10s
attr unit s
par VitalGuardNet.host[1].ipv4.icmp typename "\"inet.networklayer.ipv4.Icmp\""
par VitalGuardNet.host[1].ipv4.icmp interfaceTableModule "\"VitalGuardNet.host[1].interfaceTable\""
par VitalGuardNet.host[1].ipv4.icmp routingTableModule "\"VitalGuardNet.host[1].ipv4.routingTable\""
par VitalGuardNet.host[1].ipv4.icmp crcMode "\"declared\""
attr enum declared,computed
attr mutable ""
par VitalGuardNet.host[1].ipv4.icmp quoteLength 8B
attr mutable ""
attr unit B
par VitalGuardNet.host[1].ipv4.mp typename "\"inet.common.MessageDispatcher\""
par VitalGuardNet.host[1].ipv4.mp displayStringTextFormat "\"processed %p pk (%l)\""
par VitalGuardNet.host[1].ipv4.mp forwardServiceRegistration true
par VitalGuardNet.host[1].ipv4.mp forwardProtocolRegistration true
par VitalGuardNet.host[1].ipv4.ip typename "\"inet.networklayer.ipv4.Ipv4\""
par VitalGuardNet.host[1].ipv4.ip interfaceTableModule "\"VitalGuardNet.host[1].interfaceTable\""
par VitalGuardNet.host[1].ipv4.ip routingTableModule "\"VitalGuardNet.host[1].ipv4.routingTable\""
par VitalGuardNet.host[1].ipv4.ip arpModule "\"VitalGuardNet.host[1].ipv4.arp\""
par VitalGuardNet.host[1].ipv4.ip icmpModule "\"VitalGuardNet.host[1].ipv4.icmp\""
par VitalGuardNet.host[1].ipv4.ip crcMode "\"declared\""
attr enum declared,computed
par VitalGuardNet.host[1].ipv4.ip timeToLive 32
par VitalGuardNet.host[1].ipv4.ip multicastTimeToLive 32
par VitalGuardNet.host[1].ipv4.ip fragmentTimeout 60s
attr unit s
par VitalGuardNet.host[1].ipv4.ip limitedBroadcast false
par VitalGuardNet.host[1].ipv4.ip directBroadcastInterfaces "\"\""
scalar VitalGuardNet.host[1].ipv4.ip packetDropAddressResolutionFailed:count 0
attr interpolationmode none
attr recordingmode count
attr source packetDropReasonIsAddressResolutionFailed(packetDropped)
attr title "packet drop: address resolution failed, count"
scalar VitalGuardNet.host[1].ipv4.ip packetDropAddressResolutionFailed:sum(packetBytes) 0
attr interpolationmode none
attr recordingmode sum(packetBytes)
attr source packetDropReasonIsAddressResolutionFailed(packetDropped)
attr title "packet drop: address resolution failed, sum(packetBytes)"
scalar VitalGuardNet.host[1].ipv4.ip packetDropHopLimitReached:count 0
attr interpolationmode none
attr recordingmode count
attr source packetDropReasonIsHopLimitReached(packetDropped)
attr title "packet drop: hop limit reached, count"
scalar VitalGuardNet.host[1].ipv4.ip packetDropHopLimitReached:sum(packetBytes) 0
attr interpolationmode none
attr recordingmode sum(packetBytes)
attr source packetDropReasonIsHopLimitReached(packetDropped)
attr title "packet drop: hop limit reached, sum(packetBytes)"
scalar VitalGuardNet.host[1].ipv4.ip packetDropForwardingDisabled:count 0
attr interpolationmode none
attr recordingmode count
attr source packetDropReasonIsForwardingDisabled(packetDropped)
attr title "packet drop: forwarding disabled, count"
scalar VitalGuardNet.host[1].ipv4.ip packetDropForwardingDisabled:sum(packetBytes) 0
attr interpolationmode none
attr recordingmode sum(packetBytes)
attr source packetDropReasonIsForwardingDisabled(packetDropped)
attr title "packet drop: forwarding disabled, sum(packetBytes)"
scalar VitalGuardNet.host[1].ipv4.ip packetDropNoInterfaceFound:count 0
attr interpolationmode none
attr recordingmode count
attr source packetDropReasonIsNoInterfaceFound(packetDropped)
attr title "packet drop: no interface found, count"
scalar VitalGuardNet.host[1].ipv4.ip packetDropNoInterfaceFound:sum(packetBytes) 0
attr interpolationmode none
attr recordingmode sum(packetBytes)
attr source packetDropReasonIsNoInterfaceFound(packetDropped)
attr title "packet drop: no interface found, sum(packetBytes)"
scalar VitalGuardNet.host[1].ipv4.ip packetDropNoRouteFound:count 0
attr interpolationmode none
attr recordingmode count
attr source packetDropReasonIsNoRouteFound(packetDropped)
attr title "packet drop: no route found, count"
scalar VitalGuardNet.host[1].ipv4.ip packetDropNoRouteFound:sum(packetBytes) 0
attr interpolationmode none
attr recordingmode sum(packetBytes)
attr source packetDropReasonIsNoRouteFound(packetDropped)
attr title "packet drop: no route found, sum(packetBytes)"
scalar VitalGuardNet.host[1].ipv4.ip packetDropUndefined:count 0
attr interpolationmode none
attr recordingmode count
attr source packetDropReasonIsUndefined(packetDropped)
attr title "packet drop: undefined, count"
scalar VitalGuardNet.host[1].ipv4.ip packetDropUndefined:sum(packetBytes) 0
attr interpolationmode none
attr recordingmode sum(packetBytes)
attr source packetDropReasonIsUndefined(packetDropped)
attr title "packet drop: undefined, sum(packetBytes)"
par VitalGuardNet.host[1].ipv4.arp typename "\"inet.networklayer.arp.ipv4.Arp\""
par VitalGuardNet.host[1].ipv4.arp interfaceTableModule "\"VitalGuardNet.host[1].interfaceTable\""
par VitalGuardNet.host[1].ipv4.arp routingTableModule "\"VitalGuardNet.host[1].ipv4.routingTable\""
par VitalGuardNet.host[1].ipv4.arp retryTimeout 1s
attr unit s
par VitalGuardNet.host[1].ipv4.arp retryCount 3
par VitalGuardNet.host[1].ipv4.arp cacheTimeout 120s
attr unit s
par VitalGuardNet.host[1].ipv4.arp proxyArpInterfaces "\"\""
scalar VitalGuardNet.host[1].ipv4.arp arpReplySent:count 0
attr recordingmode count
attr source arpReplySent
attr title "ARP replies sent, count"
scalar VitalGuardNet.host[1].ipv4.arp arpReplySent:sum(packetBytes) 0
attr recordingmode sum(packetBytes)
attr source arpReplySent
attr title "ARP replies sent, sum(packetBytes)"
scalar VitalGuardNet.host[1].ipv4.arp arpRequestSent:count 0
attr recordingmode count
attr source arpRequestSent
attr title "ARP request sent, count"
scalar VitalGuardNet.host[1].ipv4.arp arpRequestSent:sum(packetBytes) 0
attr recordingmode sum(packetBytes)
attr source arpRequestSent
attr title "ARP request sent, sum(packetBytes)"
scalar VitalGuardNet.host[1].ipv4.arp arpResolutionFailed:count 0
attr recordingmode count
attr title "ARP failed resolutions, count"
scalar VitalGuardNet.host[1].ipv4.arp arpResolutionCompleted:count 0
attr recordingmode count
attr title "ARP completed resolutions, count"
scalar VitalGuardNet.host[1].ipv4.arp arpResolutionInitiated:count 0
attr recordingmode count
attr title "ARP initiated resolutions, count"
par VitalGuardNet.host[1].ipv4.lp typename "\"inet.common.MessageDispatcher\""
par VitalGuardNet.host[1].ipv4.lp displayStringTextFormat "\"processed %p pk (%l)\""
par VitalGuardNet.host[1].ipv4.lp forwardServiceRegistration true
par VitalGuardNet.host[1].ipv4.lp forwardProtocolRegistration true
par VitalGuardNet.host[1].ipv4 typename "\"inet.networklayer.ipv4.Ipv4NetworkLayer\""
par VitalGuardNet.host[1].ipv4 forwarding true
par VitalGuardNet.host[1].ipv4 multicastForwarding false
par VitalGuardNet.host[1].ipv4 interfaceTableModule "\"VitalGuardNet.host[1].interfaceTable\""
par VitalGuardNet.host[1].ipv4 displayStringTextFormat "\"%i\""
par VitalGuardNet.host[1].nl typename "\"inet.common.MessageDispatcher\""
par VitalGuardNet.host[1].nl displayStringTextFormat "\"processed %p pk (%l)\""
par VitalGuardNet.host[1].nl forwardServiceRegistration true
par VitalGuardNet.host[1].nl forwardProtocolRegistration true
par VitalGuardNet.host[1].udp typename "\"inet.transportlayer.udp.Udp\""
par VitalGuardNet.host[1].udp interfaceTableModule "\"VitalGuardNet.host[1].interfaceTable\""
par VitalGuardNet.host[1].udp icmpModule "\"^.ipv4.icmp\""
par VitalGuardNet.host[1].udp icmpv6Module "\"^.ipv6.icmpv6\""
par VitalGuardNet.host[1].udp crcMode "\"declared\""
attr enum disabled,declared,computed
par VitalGuardNet.host[1].udp defaultMulticastLoop true
scalar VitalGuardNet.host[1].udp packetReceived:count 0
attr interpolationmode none
attr recordingmode count
attr source packetReceived
attr title "packets received, count"
scalar VitalGuardNet.host[1].udp packetReceived:sum(packetBytes) 0
attr interpolationmode none
attr recordingmode sum(packetBytes)
attr source packetReceived
attr title "packets received, sum(packetBytes)"
scalar VitalGuardNet.host[1].udp packetSent:count 0
attr interpolationmode none
attr recordingmode count
attr source packetSent
attr title "packets sent, count"
scalar VitalGuardNet.host[1].udp packetSent:sum(packetBytes) 0
attr interpolationmode none
attr recordingmode sum(packetBytes)
attr source packetSent
attr title "packets sent, sum(packetBytes)"
scalar VitalGuardNet.host[1].udp passedUpPk:count 0
attr interpolationmode none
attr recordingmode count
attr source packetSentToUpper
attr title "packets passed up, count"
scalar VitalGuardNet.host[1].udp droppedPkWrongPort:count 0
attr interpolationmode none
attr recordingmode count
attr source packetDropReasonIsNoPortFound(packetDropped)
attr title "packets dropped (wrong port), count"
scalar VitalGuardNet.host[1].udp droppedPkBadChecksum:count 0
attr interpolationmode none
attr recordingmode count
attr source packetDropReasonIsIncorrectlyReceived(packetDropped)
attr title "packets dropped (checksum error), count"
par VitalGuardNet.host[1].tcp typename "\"inet.transportlayer.tcp.Tcp\""
par VitalGuardNet.host[1].tcp crcMode "\"declared\""
attr enum declared,computed
par VitalGuardNet.host[1].tcp advertisedWindow 7504
par VitalGuardNet.host[1].tcp delayedAcksEnabled false
par VitalGuardNet.host[1].tcp nagleEnabled true
par VitalGuardNet.host[1].tcp limitedTransmitEnabled false
par VitalGuardNet.host[1].tcp increasedIWEnabled false
par VitalGuardNet.host[1].tcp sackSupport false
par VitalGuardNet.host[1].tcp windowScalingSupport false
par VitalGuardNet.host[1].tcp windowScalingFactor -1
par VitalGuardNet.host[1].tcp timestampSupport false
par VitalGuardNet.host[1].tcp mss 536
par VitalGuardNet.host[1].tcp msl 120s
attr unit s
par VitalGuardNet.host[1].tcp tcpAlgorithmClass "\"TcpReno\""
par VitalGuardNet.host[1].tcp useDataNotification false
par VitalGuardNet.host[1].tcp dupthresh 3
par VitalGuardNet.host[1].tcp initialSsthresh 4294967295
par VitalGuardNet.host[1].tcp stopOperationExtraTime 0s
attr unit s
par VitalGuardNet.host[1].tcp stopOperationTimeout 2s
attr unit s
par VitalGuardNet.host[1].tcp ecnWillingness false
par VitalGuardNet.host[1].tcp dctcpGamma 0.0625
par VitalGuardNet.host[1].tn typename "\"inet.common.MessageDispatcher\""
par VitalGuardNet.host[1].tn displayStringTextFormat "\"processed %p pk (%l)\""
par VitalGuardNet.host[1].tn forwardServiceRegistration true
par VitalGuardNet.host[1].tn forwardProtocolRegistration true
par VitalGuardNet.host[1].at typename "\"inet.common.MessageDispatcher\""
par VitalGuardNet.host[1].at displayStringTextFormat "\"processed %p pk (%l)\""
par VitalGuardNet.host[1].at forwardServiceRegistration true
par VitalGuardNet.host[1].at forwardProtocolRegistration true
par VitalGuardNet.host[1] typename "\"inet.node.inet.AdhocHost\""
par VitalGuardNet.host[1] hasStatus false
par VitalGuardNet.host[1] osgModel "\"\""
par VitalGuardNet.host[1] osgModelColor "\"\""
par VitalGuardNet.host[1] canvasImage "\"\""
par VitalGuardNet.host[1] canvasImageColor "\"\""
par VitalGuardNet.host[1] recordPcap false
par VitalGuardNet.host[1] numPcapRecorders 0
par VitalGuardNet.host[1] numLoInterfaces 1
par VitalGuardNet.host[1] numWlanInterfaces 1
par VitalGuardNet.host[1] numEthInterfaces 0
par VitalGuardNet.host[1] numPppInterfaces 0
par VitalGuardNet.host[1] numTunInterfaces 0
par VitalGuardNet.host[1] numVirtInterfaces 0
par VitalGuardNet.host[1] fcsMode "\"declared\""
attr enum declared,computed
par VitalGuardNet.host[1] hasIpv4 true
par VitalGuardNet.host[1] hasIpv6 false
par VitalGuardNet.host[1] hasGn false
par VitalGuardNet.host[1] forwarding true
par VitalGuardNet.host[1] multicastForwarding false
par VitalGuardNet.host[1] hasUdp true
par VitalGuardNet.host[1] hasTcp true
par VitalGuardNet.host[1] hasSctp false
par VitalGuardNet.host[1] numApps 0
par VitalGuardNet typename "\"VitalGuardNet\""
par VitalGuardNet numHosts 2

